* File: rippleadder.pex.netlist.pex
* Created: Sat Oct 19 18:21:46 2019
* Program "Calibre xRC"
* Version "v2013.4_26.18"
* Nominal Temperature: 27C
* Circuit Temperature: 27C
* 
.subckt PM_RIPPLEADDER_X_MIRRORADDER1.N$139 1 2
c0 26 0 0.411761f
c1 25 0 0.11921f
c2 22 0 0.0832f
c3 19 0 0.11921f
c4 12 0 0.286594f
c5 7 0 0.334954f
c6 4 0 0.0832f
r7 25 44 0.0517815
r8 22 26 0.88
r9 19 41 0.0517815
r10 12 44 0.366154
r11 7 41 0.427692
r12 4 26 0.0499354
r13 4 25 0.68
r14 4 12 15.61
r15 3 29 0.589011
r16 3 22 0.0476789
r17 3 19 0.68
r18 3 7 7.805
r19 2 4 3.35
r20 1 29 3.54794
.ends

.subckt PM_RIPPLEADDER_X_MIRRORADDER1.N$74 5 9 13 17 27 29
c0 58 0 0.208f
c1 54 0 0.14976f
c2 53 0 0.04992f
c3 52 0 0.614574f
c4 49 0 0.22864f
c5 44 0 0.02756f
c6 42 0 0.330036f
c7 39 0 0.407494f
c8 34 0 0.834778f
c9 31 0 0.144004f
c10 30 0 0.458944f
c11 26 0 0.08021f
c12 23 0 0.08021f
c13 22 0 0.11804f
c14 19 0 0.11804f
c15 17 0 0.453474f
c16 13 0 0.928286f
c17 9 0 0.512234f
c18 5 0 0.750823f
r19 52 54 0.0203971
r20 52 53 1.32
r21 46 53 0.051483
r22 45 49 0.0546154
r23 43 44 0.00880368
r24 42 45 0.051483
r25 42 43 0.44
r26 37 44 0.0338756
r27 37 39 0.503077
r28 32 44 0.0338756
r29 32 34 1.13846
r30 31 58 5.535
r31 31 54 0.0379487
r32 31 58 0.34
r33 30 49 3.69
r34 30 46 0.0546154
r35 30 49 0.226667
r36 30 39 7.765
r37 30 34 7.805
r38 29 30 2.745
r39 27 30 4.20318
r40 25 31 0.25641
r41 25 26 9.77325
r42 23 31 13.0769
r43 23 24 9.77325
r44 21 30 6.82692
r45 21 22 11.4997
r46 19 30 10.6731
r47 19 20 11.4997
r48 17 26 90
r49 13 24 270
r50 9 22 110
r51 5 20 210
.ends

.subckt PM_RIPPLEADDER_X_MIRRORADDER1.N$75 1 2
c0 26 0 0.187745f
c1 25 0 0.11921f
c2 22 0 0.0832f
c3 19 0 0.11921f
c4 12 0 0.334954f
c5 7 0 0.334954f
c6 4 0 0.0832f
r7 25 43 0.0517815
r8 22 26 0.4
r9 19 40 0.0517815
r10 12 43 0.430769
r11 7 40 0.430769
r12 4 26 0.0499354
r13 4 25 0.68
r14 4 12 7.805
r15 3 22 0.0478841
r16 3 19 0.68
r17 3 7 7.805
r18 2 4 4.30865
r19 1 3 4.20318
.ends

.subckt PM_RIPPLEADDER_X_MIRRORADDER1.N$128 3 4
c0 28 0 0.411761f
c1 27 0 0.11921f
c2 24 0 0.0832f
c3 21 0 0.11921f
c4 14 0 0.383314f
c5 9 0 0.383314f
c6 6 0 0.0832f
r7 27 45 0.0458328
r8 24 28 0.88
r9 21 42 0.0458328
r10 14 45 0.384615
r11 9 42 0.398462
r12 6 28 0.0499354
r13 6 27 0.68
r14 6 14 7.765
r15 5 24 0.0476789
r16 5 21 0.68
r17 5 9 7.765
r18 4 6 1.83
r19 3 5 2.77315
.ends

.subckt PM_RIPPLEADDER_X_MIRRORADDER1.N$92 3 4
c0 28 0 0.187745f
c1 27 0 0.11921f
c2 24 0 0.0832f
c3 21 0 0.11921f
c4 14 0 0.383314f
c5 9 0 0.383314f
c6 6 0 0.0832f
r7 27 46 0.0458328
r8 24 28 0.4
r9 21 43 0.0458328
r10 14 46 0.369231
r11 9 43 0.369231
r12 6 28 0.0499354
r13 6 27 0.68
r14 6 14 7.765
r15 5 24 0.0478841
r16 5 21 0.68
r17 5 9 7.765
r18 4 6 2.78019
r19 3 5 2.745
.ends

.subckt PM_RIPPLEADDER_X_MIRRORADDER2.N$139 1 2
c0 26 0 0.411761f
c1 25 0 0.11921f
c2 22 0 0.0832f
c3 19 0 0.11921f
c4 12 0 0.286594f
c5 7 0 0.334954f
c6 4 0 0.0832f
r7 25 44 0.0517815
r8 22 26 0.88
r9 19 41 0.0517815
r10 12 44 0.366154
r11 7 41 0.427692
r12 4 26 0.0499354
r13 4 25 0.68
r14 4 12 15.61
r15 3 29 0.589011
r16 3 22 0.0476789
r17 3 19 0.68
r18 3 7 7.805
r19 2 4 3.35
r20 1 29 3.54794
.ends

.subckt PM_RIPPLEADDER_X_MIRRORADDER2.N$74 5 9 13 17 27 29
c0 58 0 0.208f
c1 54 0 0.14976f
c2 53 0 0.04992f
c3 52 0 0.614574f
c4 49 0 0.22864f
c5 44 0 0.02756f
c6 42 0 0.330036f
c7 39 0 0.407494f
c8 34 0 0.834778f
c9 31 0 0.144004f
c10 30 0 0.458944f
c11 26 0 0.08021f
c12 23 0 0.08021f
c13 22 0 0.11804f
c14 19 0 0.11804f
c15 17 0 0.453474f
c16 13 0 0.928286f
c17 9 0 0.512234f
c18 5 0 0.750823f
r19 52 54 0.0203971
r20 52 53 1.32
r21 46 53 0.051483
r22 45 49 0.0546154
r23 43 44 0.00880368
r24 42 45 0.051483
r25 42 43 0.44
r26 37 44 0.0338756
r27 37 39 0.503077
r28 32 44 0.0338756
r29 32 34 1.13846
r30 31 58 5.535
r31 31 54 0.0379487
r32 31 58 0.34
r33 30 49 3.69
r34 30 46 0.0546154
r35 30 49 0.226667
r36 30 39 7.765
r37 30 34 7.805
r38 29 30 2.745
r39 27 30 4.20318
r40 25 31 0.25641
r41 25 26 9.77325
r42 23 31 13.0769
r43 23 24 9.77325
r44 21 30 6.82692
r45 21 22 11.4997
r46 19 30 10.6731
r47 19 20 11.4997
r48 17 26 90
r49 13 24 270
r50 9 22 110
r51 5 20 210
.ends

.subckt PM_RIPPLEADDER_X_MIRRORADDER2.N$75 1 2
c0 26 0 0.187745f
c1 25 0 0.11921f
c2 22 0 0.0832f
c3 19 0 0.11921f
c4 12 0 0.334954f
c5 7 0 0.334954f
c6 4 0 0.0832f
r7 25 43 0.0517815
r8 22 26 0.4
r9 19 40 0.0517815
r10 12 43 0.430769
r11 7 40 0.430769
r12 4 26 0.0499354
r13 4 25 0.68
r14 4 12 7.805
r15 3 22 0.0478841
r16 3 19 0.68
r17 3 7 7.805
r18 2 4 4.30865
r19 1 3 4.20318
.ends

.subckt PM_RIPPLEADDER_X_MIRRORADDER2.N$128 3 4
c0 28 0 0.411761f
c1 27 0 0.11921f
c2 24 0 0.0832f
c3 21 0 0.11921f
c4 14 0 0.383314f
c5 9 0 0.383314f
c6 6 0 0.0832f
r7 27 45 0.0458328
r8 24 28 0.88
r9 21 42 0.0458328
r10 14 45 0.384615
r11 9 42 0.398462
r12 6 28 0.0499354
r13 6 27 0.68
r14 6 14 7.765
r15 5 24 0.0476789
r16 5 21 0.68
r17 5 9 7.765
r18 4 6 1.83
r19 3 5 2.77315
.ends

.subckt PM_RIPPLEADDER_X_MIRRORADDER2.N$92 3 4
c0 28 0 0.187745f
c1 27 0 0.11921f
c2 24 0 0.0832f
c3 21 0 0.11921f
c4 14 0 0.383314f
c5 9 0 0.383314f
c6 6 0 0.0832f
r7 27 46 0.0458328
r8 24 28 0.4
r9 21 43 0.0458328
r10 14 46 0.369231
r11 9 43 0.369231
r12 6 28 0.0499354
r13 6 27 0.68
r14 6 14 7.765
r15 5 24 0.0478841
r16 5 21 0.68
r17 5 9 7.765
r18 4 6 2.78019
r19 3 5 2.745
.ends

.subckt PM_RIPPLEADDER_X_MIRRORADDER3.N$139 1 2
c0 26 0 0.411761f
c1 25 0 0.11921f
c2 22 0 0.0832f
c3 19 0 0.11921f
c4 12 0 0.286594f
c5 7 0 0.334954f
c6 4 0 0.0832f
r7 25 44 0.0517815
r8 22 26 0.88
r9 19 41 0.0517815
r10 12 44 0.366154
r11 7 41 0.427692
r12 4 26 0.0499354
r13 4 25 0.68
r14 4 12 15.61
r15 3 29 0.589011
r16 3 22 0.0476789
r17 3 19 0.68
r18 3 7 7.805
r19 2 4 3.35
r20 1 29 3.54794
.ends

.subckt PM_RIPPLEADDER_X_MIRRORADDER3.N$74 5 9 13 17 27 29
c0 58 0 0.208f
c1 54 0 0.14976f
c2 53 0 0.04992f
c3 52 0 0.614574f
c4 49 0 0.22864f
c5 44 0 0.02756f
c6 42 0 0.330036f
c7 39 0 0.407494f
c8 34 0 0.834778f
c9 31 0 0.144004f
c10 30 0 0.458944f
c11 26 0 0.08021f
c12 23 0 0.08021f
c13 22 0 0.11804f
c14 19 0 0.11804f
c15 17 0 0.453474f
c16 13 0 0.928286f
c17 9 0 0.512234f
c18 5 0 0.750823f
r19 52 54 0.0203971
r20 52 53 1.32
r21 46 53 0.051483
r22 45 49 0.0546154
r23 43 44 0.00880368
r24 42 45 0.051483
r25 42 43 0.44
r26 37 44 0.0338756
r27 37 39 0.503077
r28 32 44 0.0338756
r29 32 34 1.13846
r30 31 58 5.535
r31 31 54 0.0379487
r32 31 58 0.34
r33 30 49 3.69
r34 30 46 0.0546154
r35 30 49 0.226667
r36 30 39 7.765
r37 30 34 7.805
r38 29 30 2.745
r39 27 30 4.20318
r40 25 31 0.25641
r41 25 26 9.77325
r42 23 31 13.0769
r43 23 24 9.77325
r44 21 30 6.82692
r45 21 22 11.4997
r46 19 30 10.6731
r47 19 20 11.4997
r48 17 26 90
r49 13 24 270
r50 9 22 110
r51 5 20 210
.ends

.subckt PM_RIPPLEADDER_X_MIRRORADDER3.N$75 1 2
c0 26 0 0.187745f
c1 25 0 0.11921f
c2 22 0 0.0832f
c3 19 0 0.11921f
c4 12 0 0.334954f
c5 7 0 0.334954f
c6 4 0 0.0832f
r7 25 43 0.0517815
r8 22 26 0.4
r9 19 40 0.0517815
r10 12 43 0.430769
r11 7 40 0.430769
r12 4 26 0.0499354
r13 4 25 0.68
r14 4 12 7.805
r15 3 22 0.0478841
r16 3 19 0.68
r17 3 7 7.805
r18 2 4 4.30865
r19 1 3 4.20318
.ends

.subckt PM_RIPPLEADDER_X_MIRRORADDER3.N$128 3 4
c0 28 0 0.411761f
c1 27 0 0.11921f
c2 24 0 0.0832f
c3 21 0 0.11921f
c4 14 0 0.383314f
c5 9 0 0.383314f
c6 6 0 0.0832f
r7 27 45 0.0458328
r8 24 28 0.88
r9 21 42 0.0458328
r10 14 45 0.384615
r11 9 42 0.398462
r12 6 28 0.0499354
r13 6 27 0.68
r14 6 14 7.765
r15 5 24 0.0476789
r16 5 21 0.68
r17 5 9 7.765
r18 4 6 1.83
r19 3 5 2.77315
.ends

.subckt PM_RIPPLEADDER_X_MIRRORADDER3.N$92 3 4
c0 28 0 0.187745f
c1 27 0 0.11921f
c2 24 0 0.0832f
c3 21 0 0.11921f
c4 14 0 0.383314f
c5 9 0 0.383314f
c6 6 0 0.0832f
r7 27 46 0.0458328
r8 24 28 0.4
r9 21 43 0.0458328
r10 14 46 0.369231
r11 9 43 0.369231
r12 6 28 0.0499354
r13 6 27 0.68
r14 6 14 7.765
r15 5 24 0.0478841
r16 5 21 0.68
r17 5 9 7.765
r18 4 6 2.78019
r19 3 5 2.745
.ends

.subckt PM_RIPPLEADDER_X_MIRRORADDER4.N$139 1 2
c0 26 0 0.411761f
c1 25 0 0.11921f
c2 22 0 0.0832f
c3 19 0 0.11921f
c4 12 0 0.286594f
c5 7 0 0.334954f
c6 4 0 0.0832f
r7 25 44 0.0517815
r8 22 26 0.88
r9 19 41 0.0517815
r10 12 44 0.366154
r11 7 41 0.427692
r12 4 26 0.0499354
r13 4 25 0.68
r14 4 12 15.61
r15 3 29 0.589011
r16 3 22 0.0476789
r17 3 19 0.68
r18 3 7 7.805
r19 2 4 3.35
r20 1 29 3.54794
.ends

.subckt PM_RIPPLEADDER_X_MIRRORADDER4.N$74 5 9 13 17 27 29
c0 58 0 0.208f
c1 54 0 0.14976f
c2 53 0 0.04992f
c3 52 0 0.614574f
c4 49 0 0.22864f
c5 44 0 0.02756f
c6 42 0 0.330036f
c7 39 0 0.407494f
c8 34 0 0.834778f
c9 31 0 0.144004f
c10 30 0 0.458944f
c11 26 0 0.08021f
c12 23 0 0.08021f
c13 22 0 0.11804f
c14 19 0 0.11804f
c15 17 0 0.453474f
c16 13 0 0.928286f
c17 9 0 0.512234f
c18 5 0 0.750823f
r19 52 54 0.0203971
r20 52 53 1.32
r21 46 53 0.051483
r22 45 49 0.0546154
r23 43 44 0.00880368
r24 42 45 0.051483
r25 42 43 0.44
r26 37 44 0.0338756
r27 37 39 0.503077
r28 32 44 0.0338756
r29 32 34 1.13846
r30 31 58 5.535
r31 31 54 0.0379487
r32 31 58 0.34
r33 30 49 3.69
r34 30 46 0.0546154
r35 30 49 0.226667
r36 30 39 7.765
r37 30 34 7.805
r38 29 30 2.745
r39 27 30 4.20318
r40 25 31 0.25641
r41 25 26 9.77325
r42 23 31 13.0769
r43 23 24 9.77325
r44 21 30 6.82692
r45 21 22 11.4997
r46 19 30 10.6731
r47 19 20 11.4997
r48 17 26 90
r49 13 24 270
r50 9 22 110
r51 5 20 210
.ends

.subckt PM_RIPPLEADDER_X_MIRRORADDER4.N$75 1 2
c0 26 0 0.187745f
c1 25 0 0.11921f
c2 22 0 0.0832f
c3 19 0 0.11921f
c4 12 0 0.334954f
c5 7 0 0.334954f
c6 4 0 0.0832f
r7 25 43 0.0517815
r8 22 26 0.4
r9 19 40 0.0517815
r10 12 43 0.430769
r11 7 40 0.430769
r12 4 26 0.0499354
r13 4 25 0.68
r14 4 12 7.805
r15 3 22 0.0478841
r16 3 19 0.68
r17 3 7 7.805
r18 2 4 4.30865
r19 1 3 4.20318
.ends

.subckt PM_RIPPLEADDER_X_MIRRORADDER4.N$128 3 4
c0 28 0 0.411761f
c1 27 0 0.11921f
c2 24 0 0.0832f
c3 21 0 0.11921f
c4 14 0 0.383314f
c5 9 0 0.383314f
c6 6 0 0.0832f
r7 27 45 0.0458328
r8 24 28 0.88
r9 21 42 0.0458328
r10 14 45 0.384615
r11 9 42 0.398462
r12 6 28 0.0499354
r13 6 27 0.68
r14 6 14 7.765
r15 5 24 0.0476789
r16 5 21 0.68
r17 5 9 7.765
r18 4 6 1.83
r19 3 5 2.77315
.ends

.subckt PM_RIPPLEADDER_X_MIRRORADDER4.N$92 3 4
c0 28 0 0.187745f
c1 27 0 0.11921f
c2 24 0 0.0832f
c3 21 0 0.11921f
c4 14 0 0.383314f
c5 9 0 0.383314f
c6 6 0 0.0832f
r7 27 46 0.0458328
r8 24 28 0.4
r9 21 43 0.0458328
r10 14 46 0.369231
r11 9 43 0.369231
r12 6 28 0.0499354
r13 6 27 0.68
r14 6 14 7.765
r15 5 24 0.0478841
r16 5 21 0.68
r17 5 9 7.765
r18 4 6 2.78019
r19 3 5 2.745
.ends

.subckt PM_RIPPLEADDER_GROUND 1 2 3 4 5 6 91 92 93 94 95 181 182 183 184 185 271
+ 272 273 274 275 392
c0 389 0 0.661016f
c1 387 0 0.661016f
c2 385 0 0.661016f
c3 383 0 0.647708f
c4 331 0 0.406428f
c5 330 0 0.03432f
c6 329 0 0.04134f
c7 328 0 0.03432f
c8 327 0 0.04134f
c9 326 0 0.03432f
c10 325 0 0.03432f
c11 321 0 0.528394f
c12 317 0 0.881496f
c13 314 0 0.533802f
c14 310 0 0.330296f
c15 307 0 0.310774f
c16 304 0 0.144708f
c17 298 0 0.310042f
c18 296 0 0.330296f
c19 293 0 0.310774f
c20 290 0 0.144708f
c21 287 0 0.578336f
c22 284 0 0.557982f
c23 241 0 0.03432f
c24 240 0 0.03432f
c25 239 0 0.04134f
c26 238 0 0.03432f
c27 237 0 0.04134f
c28 236 0 0.03432f
c29 235 0 0.03432f
c30 231 0 0.528394f
c31 227 0 0.881496f
c32 224 0 0.533802f
c33 220 0 0.330296f
c34 217 0 0.310774f
c35 214 0 0.144708f
c36 208 0 0.310042f
c37 206 0 0.330296f
c38 203 0 0.310774f
c39 200 0 0.144708f
c40 197 0 0.578336f
c41 194 0 0.557982f
c42 151 0 0.03432f
c43 150 0 0.03432f
c44 149 0 0.04134f
c45 148 0 0.03432f
c46 147 0 0.04134f
c47 146 0 0.03432f
c48 145 0 0.03432f
c49 141 0 0.528394f
c50 137 0 0.881496f
c51 134 0 0.533802f
c52 130 0 0.330296f
c53 127 0 0.310774f
c54 124 0 0.144708f
c55 118 0 0.310042f
c56 116 0 0.330296f
c57 113 0 0.310774f
c58 110 0 0.144708f
c59 107 0 0.578336f
c60 104 0 0.557982f
c61 61 0 0.03432f
c62 60 0 0.03432f
c63 59 0 0.04134f
c64 58 0 0.03432f
c65 57 0 0.04134f
c66 56 0 0.03432f
c67 55 0 0.03432f
c68 51 0 0.528394f
c69 47 0 0.881496f
c70 44 0 0.533802f
c71 40 0 0.330296f
c72 37 0 0.310774f
c73 34 0 0.144708f
c74 28 0 0.310042f
c75 26 0 0.330296f
c76 23 0 0.310774f
c77 20 0 0.144708f
c78 17 0 0.578336f
c79 14 0 0.557982f
r80 388 389 0.48
r81 386 387 0.48
r82 384 385 0.48
r83 383 392 0.34
r84 325 389 0.0184246
r85 319 331 0.0257252
r86 319 321 0.790769
r87 318 330 0.0184246
r88 317 331 0.0184246
r89 317 318 0.64
r90 312 330 0.0257252
r91 312 314 0.790769
r92 311 328 0.0184246
r93 310 330 0.0184246
r94 310 311 0.24
r95 305 329 0.0467847
r96 305 307 0.430769
r97 304 329 0.0467847
r98 303 328 0.0257252
r99 303 304 0.24
r100 299 327 0.0004448
r101 299 301 0.134359
r102 298 329 0.0004448
r103 298 301 0.185641
r104 297 326 0.0184246
r105 296 328 0.0184246
r106 296 297 0.24
r107 291 327 0.0467847
r108 291 293 0.424615
r109 290 327 0.0467847
r110 289 326 0.0257252
r111 289 290 0.24
r112 288 325 0.0184246
r113 287 326 0.0184246
r114 287 288 0.42
r115 282 325 0.0257252
r116 282 284 0.787692
r117 273 335 3.54794
r118 241 388 0.0184246
r119 235 387 0.0184246
r120 229 241 0.0257252
r121 229 231 0.790769
r122 228 240 0.0184246
r123 227 241 0.0184246
r124 227 228 0.64
r125 222 240 0.0257252
r126 222 224 0.790769
r127 221 238 0.0184246
r128 220 240 0.0184246
r129 220 221 0.24
r130 215 239 0.0467847
r131 215 217 0.430769
r132 214 239 0.0467847
r133 213 238 0.0257252
r134 213 214 0.24
r135 209 237 0.0004448
r136 209 211 0.134359
r137 208 239 0.0004448
r138 208 211 0.185641
r139 207 236 0.0184246
r140 206 238 0.0184246
r141 206 207 0.24
r142 201 237 0.0467847
r143 201 203 0.424615
r144 200 237 0.0467847
r145 199 236 0.0257252
r146 199 200 0.24
r147 198 235 0.0184246
r148 197 236 0.0184246
r149 197 198 0.42
r150 192 235 0.0257252
r151 192 194 0.787692
r152 183 245 3.54794
r153 151 386 0.0184246
r154 145 385 0.0184246
r155 139 151 0.0257252
r156 139 141 0.790769
r157 138 150 0.0184246
r158 137 151 0.0184246
r159 137 138 0.64
r160 132 150 0.0257252
r161 132 134 0.790769
r162 131 148 0.0184246
r163 130 150 0.0184246
r164 130 131 0.24
r165 125 149 0.0467847
r166 125 127 0.430769
r167 124 149 0.0467847
r168 123 148 0.0257252
r169 123 124 0.24
r170 119 147 0.0004448
r171 119 121 0.134359
r172 118 149 0.0004448
r173 118 121 0.185641
r174 117 146 0.0184246
r175 116 148 0.0184246
r176 116 117 0.24
r177 111 147 0.0467847
r178 111 113 0.424615
r179 110 147 0.0467847
r180 109 146 0.0257252
r181 109 110 0.24
r182 108 145 0.0184246
r183 107 146 0.0184246
r184 107 108 0.42
r185 102 145 0.0257252
r186 102 104 0.787692
r187 93 155 3.54794
r188 61 384 0.0184246
r189 55 383 0.0184246
r190 49 61 0.0257252
r191 49 51 0.790769
r192 48 60 0.0184246
r193 47 61 0.0184246
r194 47 48 0.64
r195 42 60 0.0257252
r196 42 44 0.790769
r197 41 58 0.0184246
r198 40 60 0.0184246
r199 40 41 0.24
r200 35 59 0.0467847
r201 35 37 0.430769
r202 34 59 0.0467847
r203 33 58 0.0257252
r204 33 34 0.24
r205 29 57 0.0004448
r206 29 31 0.134359
r207 28 59 0.0004448
r208 28 31 0.185641
r209 27 56 0.0184246
r210 26 58 0.0184246
r211 26 27 0.24
r212 21 57 0.0467847
r213 21 23 0.424615
r214 20 57 0.0467847
r215 19 56 0.0257252
r216 19 20 0.24
r217 18 55 0.0184246
r218 17 56 0.0184246
r219 17 18 0.42
r220 12 55 0.0257252
r221 12 14 0.787692
r222 6 275 3.35
r223 6 274 4.20318
r224 6 335 0.552198
r225 6 272 4.30728
r226 6 271 4.16451
r227 6 321 7.805
r228 6 314 7.805
r229 6 307 7.805
r230 6 301 5.17667
r231 6 293 7.805
r232 6 284 7.805
r233 6 185 3.35
r234 6 184 4.20318
r235 6 245 0.552198
r236 6 182 4.30728
r237 6 181 4.16451
r238 6 231 7.805
r239 6 224 7.805
r240 6 217 7.805
r241 6 211 5.17667
r242 6 203 7.805
r243 6 194 7.805
r244 6 95 3.35
r245 6 94 4.20318
r246 6 155 0.552198
r247 6 92 4.30728
r248 6 91 4.16451
r249 6 141 7.805
r250 6 134 7.805
r251 6 127 7.805
r252 6 121 5.17667
r253 6 113 7.805
r254 6 104 7.805
r255 6 65 0.552198
r256 6 51 7.805
r257 6 44 7.805
r258 6 37 7.805
r259 6 31 5.17667
r260 6 23 7.805
r261 6 14 7.805
r262 5 6 3.35
r263 4 6 4.20318
r264 3 65 3.54794
r265 2 6 4.30728
r266 1 6 4.16451
.ends

.subckt PM_RIPPLEADDER_VDD 1 7 8 9 10 11 102 103 104 105 106 197 198 199 200 201
+ 292 293 294 295 296 408
c0 405 0 0.661016f
c1 403 0 0.661016f
c2 401 0 0.661016f
c3 399 0 0.647708f
c4 349 0 0.406428f
c5 348 0 0.03432f
c6 347 0 0.03432f
c7 346 0 0.05512f
c8 345 0 0.03432f
c9 344 0 0.05512f
c10 343 0 0.03432f
c11 339 0 0.649294f
c12 335 0 0.881496f
c13 332 0 0.654702f
c14 328 0 0.330296f
c15 327 0 0.168888f
c16 323 0 0.383314f
c17 319 0 0.330296f
c18 314 0 0.330296f
c19 313 0 0.168888f
c20 309 0 0.383314f
c21 305 0 0.578336f
c22 302 0 0.654702f
c23 254 0 0.03432f
c24 253 0 0.03432f
c25 252 0 0.03432f
c26 251 0 0.05512f
c27 250 0 0.03432f
c28 249 0 0.05512f
c29 248 0 0.03432f
c30 244 0 0.649294f
c31 240 0 0.881496f
c32 237 0 0.654702f
c33 233 0 0.330296f
c34 232 0 0.168888f
c35 228 0 0.383314f
c36 224 0 0.330296f
c37 219 0 0.330296f
c38 218 0 0.168888f
c39 214 0 0.383314f
c40 210 0 0.578336f
c41 207 0 0.654702f
c42 159 0 0.03432f
c43 158 0 0.03432f
c44 157 0 0.03432f
c45 156 0 0.05512f
c46 155 0 0.03432f
c47 154 0 0.05512f
c48 153 0 0.03432f
c49 149 0 0.649294f
c50 145 0 0.881496f
c51 142 0 0.654702f
c52 138 0 0.330296f
c53 137 0 0.168888f
c54 133 0 0.383314f
c55 129 0 0.330296f
c56 124 0 0.330296f
c57 123 0 0.168888f
c58 119 0 0.383314f
c59 115 0 0.578336f
c60 112 0 0.654702f
c61 64 0 0.03432f
c62 63 0 0.03432f
c63 62 0 0.03432f
c64 61 0 0.05512f
c65 60 0 0.03432f
c66 59 0 0.05512f
c67 58 0 0.03432f
c68 54 0 0.649294f
c69 50 0 0.881496f
c70 47 0 0.654702f
c71 43 0 0.330296f
c72 42 0 0.168888f
c73 38 0 0.383314f
c74 34 0 0.330296f
c75 29 0 0.330296f
c76 28 0 0.168888f
c77 24 0 0.383314f
c78 20 0 0.578336f
c79 17 0 0.654702f
r80 404 405 0.48
r81 402 403 0.48
r82 400 401 0.48
r83 399 408 0.34
r84 343 405 0.0184246
r85 337 349 0.0257252
r86 337 339 0.809231
r87 336 348 0.0184246
r88 335 349 0.0184246
r89 335 336 0.64
r90 330 348 0.0257252
r91 330 332 0.809231
r92 329 347 0.0184246
r93 328 348 0.0184246
r94 328 329 0.24
r95 327 347 0.0257252
r96 326 346 0.0576508
r97 326 327 0.28
r98 321 346 0.0576508
r99 321 323 0.387692
r100 320 345 0.0184246
r101 319 347 0.0184246
r102 319 320 0.24
r103 315 344 0.00647627
r104 315 317 0.100769
r105 314 346 0.00647627
r106 314 317 0.139231
r107 313 345 0.0257252
r108 312 344 0.0576508
r109 312 313 0.28
r110 307 344 0.0576508
r111 307 309 0.386154
r112 306 343 0.0184246
r113 305 345 0.0184246
r114 305 306 0.42
r115 300 343 0.0257252
r116 300 302 0.82
r117 296 297 4.71069
r118 294 353 2.2875
r119 254 404 0.0184246
r120 248 403 0.0184246
r121 242 254 0.0257252
r122 242 244 0.809231
r123 241 253 0.0184246
r124 240 254 0.0184246
r125 240 241 0.64
r126 235 253 0.0257252
r127 235 237 0.809231
r128 234 252 0.0184246
r129 233 253 0.0184246
r130 233 234 0.24
r131 232 252 0.0257252
r132 231 251 0.0576508
r133 231 232 0.28
r134 226 251 0.0576508
r135 226 228 0.387692
r136 225 250 0.0184246
r137 224 252 0.0184246
r138 224 225 0.24
r139 220 249 0.00647627
r140 220 222 0.100769
r141 219 251 0.00647627
r142 219 222 0.139231
r143 218 250 0.0257252
r144 217 249 0.0576508
r145 217 218 0.28
r146 212 249 0.0576508
r147 212 214 0.386154
r148 211 248 0.0184246
r149 210 250 0.0184246
r150 210 211 0.42
r151 205 248 0.0257252
r152 205 207 0.82
r153 201 202 4.71069
r154 199 258 2.2875
r155 159 402 0.0184246
r156 153 401 0.0184246
r157 147 159 0.0257252
r158 147 149 0.809231
r159 146 158 0.0184246
r160 145 159 0.0184246
r161 145 146 0.64
r162 140 158 0.0257252
r163 140 142 0.809231
r164 139 157 0.0184246
r165 138 158 0.0184246
r166 138 139 0.24
r167 137 157 0.0257252
r168 136 156 0.0576508
r169 136 137 0.28
r170 131 156 0.0576508
r171 131 133 0.387692
r172 130 155 0.0184246
r173 129 157 0.0184246
r174 129 130 0.24
r175 125 154 0.00647627
r176 125 127 0.100769
r177 124 156 0.00647627
r178 124 127 0.139231
r179 123 155 0.0257252
r180 122 154 0.0576508
r181 122 123 0.28
r182 117 154 0.0576508
r183 117 119 0.386154
r184 116 153 0.0184246
r185 115 155 0.0184246
r186 115 116 0.42
r187 110 153 0.0257252
r188 110 112 0.82
r189 106 107 4.71069
r190 104 163 2.2875
r191 64 400 0.0184246
r192 58 399 0.0184246
r193 52 64 0.0257252
r194 52 54 0.809231
r195 51 63 0.0184246
r196 50 64 0.0184246
r197 50 51 0.64
r198 45 63 0.0257252
r199 45 47 0.809231
r200 44 62 0.0184246
r201 43 63 0.0184246
r202 43 44 0.24
r203 42 62 0.0257252
r204 41 61 0.0576508
r205 41 42 0.28
r206 36 61 0.0576508
r207 36 38 0.387692
r208 35 60 0.0184246
r209 34 62 0.0184246
r210 34 35 0.24
r211 30 59 0.00647627
r212 30 32 0.100769
r213 29 61 0.00647627
r214 29 32 0.139231
r215 28 60 0.0257252
r216 27 59 0.0576508
r217 27 28 0.28
r218 22 59 0.0576508
r219 22 24 0.386154
r220 21 58 0.0184246
r221 20 60 0.0184246
r222 20 21 0.42
r223 15 58 0.0257252
r224 15 17 0.82
r225 11 12 4.71069
r226 9 68 2.2875
r227 1 297 6.09114
r228 1 293 2.80961
r229 1 295 2.745
r230 1 353 0.422308
r231 1 292 2.75204
r232 1 339 7.765
r233 1 332 7.765
r234 1 323 7.765
r235 1 317 5.20333
r236 1 309 7.765
r237 1 302 7.765
r238 1 202 6.09114
r239 1 198 2.80961
r240 1 200 2.745
r241 1 258 0.422308
r242 1 197 2.75204
r243 1 244 7.765
r244 1 237 7.765
r245 1 228 7.765
r246 1 222 5.20333
r247 1 214 7.765
r248 1 207 7.765
r249 1 107 6.09114
r250 1 103 2.80961
r251 1 105 2.745
r252 1 163 0.422308
r253 1 102 2.75204
r254 1 149 7.765
r255 1 142 7.765
r256 1 133 7.765
r257 1 127 5.20333
r258 1 119 7.765
r259 1 112 7.765
r260 1 12 6.09114
r261 1 8 2.80961
r262 1 10 2.745
r263 1 68 0.422308
r264 1 7 2.75204
r265 1 54 7.765
r266 1 47 7.765
r267 1 38 7.765
r268 1 32 5.20333
r269 1 24 7.765
r270 1 17 7.765
.ends

.subckt PM_RIPPLEADDER_B0 6 10 16 20 26 30 34 38 101
c0 105 0 0.2496f
c1 79 0 0.183282f
c2 77 0 0.334776f
c3 70 0 0.03328f
c4 68 0 0.208f
c5 65 0 0.728441f
c6 59 0 0.208f
c7 54 0 0.488162f
c8 53 0 0.03328f
c9 52 0 0.066304f
c10 50 0 0.252036f
c11 49 0 0.12142f
c12 47 0 0.08021f
c13 44 0 0.08021f
c14 42 0 0.14404f
c15 38 0 1.01726f
c16 34 0 0.542797f
c17 30 0 1.04462f
c18 26 0 0.454657f
c19 20 0 0.541614f
c20 16 0 0.400364f
c21 13 0 0.329462f
c22 10 0 0.954117f
c23 8 0 0.63616f
c24 6 0 0.400364f
r25 77 101 0.0188462
r26 65 105 1.56
r27 63 101 0.015
r28 54 56 0.0470638
r29 54 70 0.96
r30 53 65 0.0489097
r31 52 53 0.106667
r32 50 59 5.535
r33 50 56 0.0912821
r34 50 59 0.34
r35 49 79 3.71795
r36 49 68 5.535
r37 49 70 0.0458328
r38 49 52 0.00307692
r39 49 68 0.34
r40 48 105 0.0899974
r41 48 77 2.7675
r42 48 63 0.34
r43 46 50 0.25641
r44 46 47 9.77325
r45 44 50 13.0769
r46 44 45 9.77325
r47 40 42 12.5
r48 38 47 260
r49 34 45 130
r50 28 79 5.96818
r51 28 30 290
r52 24 79 5.96818
r53 24 26 110
r54 18 42 3.93537
r55 18 20 120
r56 13 40 0.587288
r57 8 48 16.8272
r58 8 13 50
r59 8 10 260
r60 4 48 12.8085
r61 4 16 91.9231
r62 4 6 91.9231
.ends

.subckt PM_RIPPLEADDER_A0 11 15 19 23 27 31 35 39 130
c0 91 0 0.03328f
c1 89 0 0.208f
c2 86 0 0.539902f
c3 85 0 0.03328f
c4 84 0 0.168232f
c5 82 0 0.109096f
c6 78 0 0.208f
c7 73 0 0.394822f
c8 72 0 0.05824f
c9 71 0 0.041344f
c10 67 0 0.208f
c11 64 0 0.03328f
c12 63 0 0.066304f
c13 61 0 0.296288f
c14 57 0 0.132752f
c15 55 0 0.0416f
c16 54 0 0.515936f
c17 53 0 0.219422f
c18 52 0 0.183282f
c19 51 0 0.19669f
c20 50 0 0.08021f
c21 47 0 0.08021f
c22 46 0 0.08528f
c23 44 0 0.12142f
c24 41 0 0.523656f
c25 39 0 1.01727f
c26 35 0 0.394714f
c27 31 0 1.16333f
c28 27 0 0.335954f
c29 23 0 1.19473f
c30 19 0 0.306574f
c31 15 0 0.659134f
c32 11 0 0.247814f
c33 7 0 0.04576f
c34 6 0 0.107864f
c35 5 0 0.06721f
r36 133 135 0.0149253
r37 130 131 0.0489097
r38 85 86 1.16
r39 84 133 0.36
r40 82 130 0.00307692
r41 73 75 0.0470638
r42 73 91 0.76
r43 72 86 0.0889097
r44 71 72 0.0666667
r45 64 84 0.0489097
r46 63 85 0.0489097
r47 61 131 0.56
r48 55 61 0.0489097
r49 55 57 0.0892308
r50 54 78 5.535
r51 54 75 0.224615
r52 54 78 0.34
r53 53 89 5.535
r54 53 91 0.0458328
r55 53 71 0.00307692
r56 53 89 0.34
r57 52 67 5.535
r58 52 63 0.00307692
r59 52 64 0.10359
r60 52 67 0.34
r61 51 135 0.0804734
r62 51 108 8.6194
r63 51 82 0.68
r64 51 57 5.535
r65 49 54 0.25641
r66 49 50 9.77325
r67 47 54 29.7436
r68 47 48 9.77325
r69 45 53 12.0513
r70 45 46 1.74191
r71 43 52 7.94872
r72 43 44 1.74191
r73 39 50 260
r74 35 48 80
r75 29 46 9.36679
r76 29 31 330
r77 25 46 9.36679
r78 25 27 70
r79 21 44 9.36679
r80 21 23 340
r81 17 44 9.36679
r82 17 19 60
r83 15 108 160
r84 11 42 40
r85 7 42 7.49833
r86 7 41 80
r87 6 51 1.15385
r88 5 41 6.11371
r89 5 6 10
.ends

.subckt PM_RIPPLEADDER_S0 1 3 29
c0 31 0 0.02756f
c1 29 0 0.141514f
c2 7 0 0.63593f
c3 5 0 0.600934f
r4 27 31 0.00880368
r5 27 29 0.1
r6 24 31 0.0338756
r7 21 31 0.0338756
r8 7 24 0.910769
r9 5 21 0.729231
r10 4 7 7.765
r11 4 5 7.805
r12 3 4 0.854996
r13 1 4 2.89767
.ends

.subckt PM_RIPPLEADDER_S1 1 3 29
c0 31 0 0.02756f
c1 29 0 0.141514f
c2 7 0 0.63593f
c3 5 0 0.600934f
r4 27 31 0.00880368
r5 27 29 0.14
r6 24 31 0.0338756
r7 21 31 0.0338756
r8 7 24 0.910769
r9 5 21 0.729231
r10 4 7 7.765
r11 4 5 7.805
r12 3 4 0.854996
r13 1 4 2.89767
.ends

.subckt PM_RIPPLEADDER_S2 1 3 29
c0 31 0 0.02756f
c1 29 0 0.141514f
c2 7 0 0.63593f
c3 5 0 0.600934f
r4 27 31 0.00880368
r5 27 29 0.14
r6 24 31 0.0338756
r7 21 31 0.0338756
r8 7 24 0.910769
r9 5 21 0.729231
r10 4 7 7.765
r11 4 5 7.805
r12 3 4 0.854996
r13 1 4 2.89767
.ends

.subckt PM_RIPPLEADDER_S3 1 3 29
c0 31 0 0.02756f
c1 29 0 0.141514f
c2 7 0 0.63593f
c3 5 0 0.600934f
r4 27 31 0.00880368
r5 27 29 0.14
r6 24 31 0.0338756
r7 21 31 0.0338756
r8 7 24 0.910769
r9 5 21 0.729231
r10 4 7 7.765
r11 4 5 7.805
r12 3 4 0.854996
r13 1 4 2.89767
.ends

.subckt PM_RIPPLEADDER_B1 6 10 16 20 26 30 34 38 105
c0 103 0 0.2496f
c1 79 0 0.183282f
c2 77 0 0.334776f
c3 70 0 0.03328f
c4 68 0 0.208f
c5 65 0 0.728441f
c6 59 0 0.208f
c7 54 0 0.488162f
c8 53 0 0.03328f
c9 52 0 0.066304f
c10 50 0 0.252036f
c11 49 0 0.12142f
c12 47 0 0.08021f
c13 44 0 0.08021f
c14 42 0 0.14404f
c15 38 0 1.01726f
c16 34 0 0.542797f
c17 30 0 1.04462f
c18 26 0 0.454657f
c19 20 0 0.541614f
c20 16 0 0.400364f
c21 13 0 0.329462f
c22 10 0 0.954117f
c23 8 0 0.63616f
c24 6 0 0.400364f
r25 65 103 1.56
r26 63 77 0.0338462
r27 54 56 0.0470638
r28 54 70 0.96
r29 53 65 0.0489097
r30 52 53 0.106667
r31 50 59 5.535
r32 50 56 0.0912821
r33 50 59 0.34
r34 49 79 3.71795
r35 49 68 5.535
r36 49 70 0.0458328
r37 49 52 0.00307692
r38 49 68 0.34
r39 48 103 0.0899974
r40 48 105 0.002
r41 48 77 2.7675
r42 48 63 0.34
r43 46 50 0.25641
r44 46 47 9.77325
r45 44 50 13.0769
r46 44 45 9.77325
r47 40 42 12.5
r48 38 47 260
r49 34 45 130
r50 28 79 5.96818
r51 28 30 290
r52 24 79 5.96818
r53 24 26 110
r54 18 42 3.93537
r55 18 20 120
r56 13 40 0.587288
r57 8 48 16.8272
r58 8 13 50
r59 8 10 260
r60 4 48 12.8085
r61 4 16 91.9231
r62 4 6 91.9231
.ends

.subckt PM_RIPPLEADDER_A1 11 15 19 23 27 31 35 39 134
c0 134 0 0.11648f
c1 91 0 0.03328f
c2 89 0 0.208f
c3 86 0 0.539902f
c4 85 0 0.03328f
c5 84 0 0.168232f
c6 82 0 0.109096f
c7 78 0 0.208f
c8 73 0 0.394822f
c9 72 0 0.05824f
c10 71 0 0.041344f
c11 67 0 0.208f
c12 64 0 0.03328f
c13 63 0 0.066304f
c14 61 0 0.296288f
c15 57 0 0.132752f
c16 55 0 0.0416f
c17 54 0 0.515936f
c18 53 0 0.219422f
c19 52 0 0.183282f
c20 51 0 0.08021f
c21 50 0 0.08021f
c22 47 0 0.08021f
c23 46 0 0.08528f
c24 44 0 0.12142f
c25 41 0 0.523656f
c26 39 0 1.01727f
c27 35 0 0.394714f
c28 31 0 1.16333f
c29 27 0 0.335954f
c30 23 0 1.19473f
c31 19 0 0.306574f
c32 15 0 0.659134f
c33 11 0 0.247814f
c34 7 0 0.04576f
c35 6 0 0.107864f
c36 5 0 0.06721f
r37 134 135 0.0769231
r38 131 135 0.0149253
r39 85 86 1.16
r40 84 131 0.36
r41 82 129 0.0519866
r42 73 75 0.0470638
r43 73 91 0.76
r44 72 86 0.0889097
r45 71 72 0.0666667
r46 64 84 0.0489097
r47 63 85 0.0489097
r48 61 129 0.56
r49 55 61 0.0489097
r50 55 57 0.0892308
r51 54 78 5.535
r52 54 75 0.224615
r53 54 78 0.34
r54 53 89 5.535
r55 53 91 0.0458328
r56 53 71 0.00307692
r57 53 89 0.34
r58 52 67 5.535
r59 52 63 0.00307692
r60 52 64 0.10359
r61 52 67 0.34
r62 51 134 0.0035503
r63 51 108 8.6194
r64 51 82 0.68
r65 51 57 5.535
r66 49 54 0.25641
r67 49 50 9.77325
r68 47 54 29.7436
r69 47 48 9.77325
r70 45 53 12.0513
r71 45 46 1.74191
r72 43 52 7.94872
r73 43 44 1.74191
r74 39 50 260
r75 35 48 80
r76 29 46 9.36679
r77 29 31 330
r78 25 46 9.36679
r79 25 27 70
r80 21 44 9.36679
r81 21 23 340
r82 17 44 9.36679
r83 17 19 60
r84 15 108 160
r85 11 42 40
r86 7 42 7.49833
r87 7 41 80
r88 6 51 1.15385
r89 5 41 6.11371
r90 5 6 10
.ends

.subckt PM_RIPPLEADDER_B2 6 10 16 20 26 30 34 38 105
c0 103 0 0.2496f
c1 79 0 0.183282f
c2 77 0 0.334776f
c3 70 0 0.03328f
c4 68 0 0.208f
c5 65 0 0.728441f
c6 59 0 0.208f
c7 54 0 0.488162f
c8 53 0 0.03328f
c9 52 0 0.066304f
c10 50 0 0.252036f
c11 49 0 0.12142f
c12 47 0 0.08021f
c13 44 0 0.08021f
c14 42 0 0.14404f
c15 38 0 1.01726f
c16 34 0 0.542797f
c17 30 0 1.04462f
c18 26 0 0.454657f
c19 20 0 0.541614f
c20 16 0 0.400364f
c21 13 0 0.329462f
c22 10 0 0.954117f
c23 8 0 0.63616f
c24 6 0 0.400364f
r25 65 103 1.56
r26 63 77 0.0338462
r27 54 56 0.0470638
r28 54 70 0.96
r29 53 65 0.0489097
r30 52 53 0.106667
r31 50 59 5.535
r32 50 56 0.0912821
r33 50 59 0.34
r34 49 79 3.71795
r35 49 68 5.535
r36 49 70 0.0458328
r37 49 52 0.00307692
r38 49 68 0.34
r39 48 103 0.0899974
r40 48 105 0.002
r41 48 77 2.7675
r42 48 63 0.34
r43 46 50 0.25641
r44 46 47 9.77325
r45 44 50 13.0769
r46 44 45 9.77325
r47 40 42 12.5
r48 38 47 260
r49 34 45 130
r50 28 79 5.96818
r51 28 30 290
r52 24 79 5.96818
r53 24 26 110
r54 18 42 3.93537
r55 18 20 120
r56 13 40 0.587288
r57 8 48 16.8272
r58 8 13 50
r59 8 10 260
r60 4 48 12.8085
r61 4 16 91.9231
r62 4 6 91.9231
.ends

.subckt PM_RIPPLEADDER_A2 11 15 19 23 27 31 35 39 134
c0 134 0 0.11648f
c1 91 0 0.03328f
c2 89 0 0.208f
c3 86 0 0.539902f
c4 85 0 0.03328f
c5 84 0 0.168232f
c6 82 0 0.109096f
c7 78 0 0.208f
c8 73 0 0.394822f
c9 72 0 0.05824f
c10 71 0 0.041344f
c11 67 0 0.208f
c12 64 0 0.03328f
c13 63 0 0.066304f
c14 61 0 0.296288f
c15 57 0 0.132752f
c16 55 0 0.0416f
c17 54 0 0.515936f
c18 53 0 0.219422f
c19 52 0 0.183282f
c20 51 0 0.08021f
c21 50 0 0.08021f
c22 47 0 0.08021f
c23 46 0 0.08528f
c24 44 0 0.12142f
c25 41 0 0.523656f
c26 39 0 1.01727f
c27 35 0 0.394714f
c28 31 0 1.16333f
c29 27 0 0.335954f
c30 23 0 1.19473f
c31 19 0 0.306574f
c32 15 0 0.659134f
c33 11 0 0.247814f
c34 7 0 0.04576f
c35 6 0 0.107864f
c36 5 0 0.06721f
r37 134 135 0.0769231
r38 131 135 0.0149253
r39 85 86 1.16
r40 84 131 0.36
r41 82 129 0.0519866
r42 73 75 0.0470638