* SPICE NETLIST
***************************************

.SUBCKT mimcap_g13 plus minus
.ENDS
***************************************
.SUBCKT spiral_inductor_lvs pos neg
.ENDS
***************************************
.SUBCKT xnor2 VDD VSS Y A0 A1
** N=9 EP=5 IP=0 FDC=10
M0 7 A0 6 VSS nmos L=1.4e-07 W=7.7e-07 $X=805 $Y=1610 $D=19
M1 VSS A1 7 VSS nmos L=1.4e-07 W=7.7e-07 $X=1225 $Y=1610 $D=19
M2 Y A1 8 VSS nmos L=1.4e-07 W=7.7e-07 $X=2345 $Y=1610 $D=19
M3 8 A0 Y VSS nmos L=1.4e-07 W=7.7e-07 $X=2905 $Y=1610 $D=19
M4 VSS 6 8 VSS nmos L=1.4e-07 W=7.7e-07 $X=3465 $Y=1610 $D=19
M5 6 A0 VDD VDD pmos L=1.4e-07 W=1.19e-06 $X=1175 $Y=4585 $D=25
M6 VDD A1 6 VDD pmos L=1.4e-07 W=1.19e-06 $X=1735 $Y=4585 $D=25
M7 9 A0 VDD VDD pmos L=1.4e-07 W=2.24e-06 $X=2365 $Y=4620 $D=25
M8 Y A1 9 VDD pmos L=1.4e-07 W=2.24e-06 $X=2855 $Y=4585 $D=25
M9 VDD 6 Y VDD pmos L=1.4e-07 W=1.19e-06 $X=3450 $Y=4620 $D=25
.ENDS
***************************************
.SUBCKT nand02 VSS Y VDD A1 A0
** N=6 EP=5 IP=0 FDC=4
M0 6 A1 VSS VSS nmos L=1.4e-07 W=7.7e-07 $X=875 $Y=1190 $D=19
M1 Y A0 6 VSS nmos L=1.4e-07 W=7.7e-07 $X=1295 $Y=1190 $D=19
M2 Y A1 VDD VDD pmos L=1.4e-07 W=1.05e-06 $X=875 $Y=6160 $D=25
M3 VDD A0 Y VDD pmos L=1.4e-07 W=1.05e-06 $X=1435 $Y=6160 $D=25
.ENDS
***************************************
.SUBCKT ICV_1 1 2 3 4 5 6 7 8
** N=8 EP=8 IP=10 FDC=14
X0 2 1 5 3 4 xnor2 $T=7350 0 1 180 $X=2450 $Y=0
X1 1 8 2 6 7 nand02 $T=0 0 0 0 $X=0 $Y=0
.ENDS
***************************************
.SUBCKT ICV_2 1 2 3 4 5 6 7 8
** N=8 EP=8 IP=10 FDC=14
X0 2 1 5 3 4 xnor2 $T=2450 0 0 0 $X=2450 $Y=0
X1 1 8 2 6 7 nand02 $T=0 0 0 0 $X=0 $Y=0
.ENDS
***************************************
.SUBCKT ao32 VSS VDD Y B1 B0 A0 A1 A2
** N=13 EP=8 IP=0 FDC=12
M0 9 B1 VSS VSS nmos L=1.4e-07 W=7.7e-07 $X=1015 $Y=1610 $D=19
M1 10 B0 9 VSS nmos L=1.4e-07 W=7.7e-07 $X=1435 $Y=1610 $D=19
M2 11 A0 10 VSS nmos L=1.4e-07 W=1.19e-06 $X=2030 $Y=1190 $D=19
M3 12 A1 11 VSS nmos L=1.4e-07 W=1.19e-06 $X=2450 $Y=1190 $D=19
M4 VSS A2 12 VSS nmos L=1.4e-07 W=1.19e-06 $X=2870 $Y=1190 $D=19
M5 Y 10 VSS VSS nmos L=1.4e-07 W=3.5e-07 $X=3465 $Y=2030 $D=19
M6 10 B1 13 VDD pmos L=1.4e-07 W=1.19e-06 $X=730 $Y=6020 $D=25
M7 13 B0 10 VDD pmos L=1.4e-07 W=1.19e-06 $X=1290 $Y=6020 $D=25
M8 VDD A0 13 VDD pmos L=1.4e-07 W=1.19e-06 $X=1850 $Y=6020 $D=25
M9 13 A1 VDD VDD pmos L=1.4e-07 W=1.19e-06 $X=2410 $Y=6020 $D=25
M10 VDD A2 13 VDD pmos L=1.4e-07 W=1.19e-06 $X=2970 $Y=6020 $D=25
M11 Y 10 VDD VDD pmos L=1.4e-07 W=7.7e-07 $X=3565 $Y=6020 $D=25
.ENDS
***************************************
.SUBCKT ICV_3 1 2 3 4 5 6 7 8
** N=8 EP=8 IP=10 FDC=20
X0 2 1 5 3 4 xnor2 $T=0 0 0 0 $X=0 $Y=0
X1 2 1 8 6 7 xnor2 $T=4900 0 0 0 $X=4900 $Y=0
.ENDS
***************************************
.SUBCKT inv01 VSS VDD Y A
** N=4 EP=4 IP=0 FDC=2
M0 Y A VSS VSS nmos L=1.4e-07 W=3.5e-07 $X=910 $Y=1820 $D=19
M1 Y A VDD VDD pmos L=1.4e-07 W=7.7e-07 $X=910 $Y=5600 $D=25
.ENDS
***************************************
.SUBCKT aoi32 VSS VDD Y A2 A1 A0 B0 B1
** N=12 EP=8 IP=0 FDC=10
M0 9 A2 VSS VSS nmos L=1.4e-07 W=1.19e-06 $X=805 $Y=1190 $D=19
M1 10 A1 9 VSS nmos L=1.4e-07 W=1.19e-06 $X=1225 $Y=1190 $D=19
M2 Y A0 10 VSS nmos L=1.4e-07 W=1.19e-06 $X=1645 $Y=1190 $D=19
M3 11 B0 Y VSS nmos L=1.4e-07 W=7.7e-07 $X=2240 $Y=1610 $D=19
M4 VSS B1 11 VSS nmos L=1.4e-07 W=7.7e-07 $X=2660 $Y=1610 $D=19
M5 12 A2 VDD VDD pmos L=1.4e-07 W=1.19e-06 $X=805 $Y=6020 $D=25
M6 VDD A1 12 VDD pmos L=1.4e-07 W=1.19e-06 $X=1365 $Y=6020 $D=25
M7 12 A0 VDD VDD pmos L=1.4e-07 W=1.19e-06 $X=1925 $Y=6020 $D=25
M8 Y B0 12 VDD pmos L=1.4e-07 W=1.19e-06 $X=2485 $Y=6020 $D=25
M9 12 B1 Y VDD pmos L=1.4e-07 W=1.19e-06 $X=3045 $Y=6020 $D=25
.ENDS
***************************************
.SUBCKT ICV_4 1 2 3 4 5 6 7 8 9 10
** N=10 EP=10 IP=12 FDC=12
X0 1 2 4 3 inv01 $T=0 0 0 0 $X=0 $Y=0
X1 1 2 10 5 6 7 8 9 aoi32 $T=1960 0 0 0 $X=1960 $Y=0
.ENDS
***************************************
.SUBCKT ICV_5 1 2 3 4 5 6 7 8
** N=8 EP=8 IP=10 FDC=20
X0 2 1 5 3 4 xnor2 $T=-4900 0 0 0 $X=-4900 $Y=0
X1 2 1 8 6 7 xnor2 $T=0 0 0 0 $X=0 $Y=0
.ENDS
***************************************
.SUBCKT ICV_6 1 2 3 4 5 6 7 8 9 10
** N=10 EP=10 IP=12 FDC=12
X0 1 2 4 3 inv01 $T=5880 0 1 180 $X=3920 $Y=0
X1 1 2 10 5 6 7 8 9 aoi32 $T=0 0 0 0 $X=0 $Y=0
.ENDS
***************************************
.SUBCKT ICV_7 1 2 3 4 5 6 7
** N=7 EP=7 IP=9 FDC=12
X0 2 1 5 3 4 xnor2 $T=0 0 0 0 $X=0 $Y=0
X1 1 2 7 6 inv01 $T=0 0 1 180 $X=-1960 $Y=0
.ENDS
***************************************
.SUBCKT ICV_8 1 2 3 4 5 6 7 8 9 10
** N=10 EP=10 IP=12 FDC=22
X0 1 2 3 4 5 6 7 8 ICV_3 $T=0 0 1 180 $X=-9800 $Y=0
X1 1 2 10 9 inv01 $T=0 0 0 0 $X=0 $Y=0
.ENDS
***************************************
.SUBCKT ICV_9 1 2 3 4 5 6 7 8
** N=8 EP=8 IP=10 FDC=14
X0 2 1 5 3 4 xnor2 $T=0 0 0 0 $X=0 $Y=0
X1 1 8 2 6 7 nand02 $T=4900 0 0 0 $X=4900 $Y=0
.ENDS
***************************************
.SUBCKT ICV_10 1 2 3 4 5 6 7 8 9 10
** N=10 EP=10 IP=13 FDC=24
X0 2 1 5 3 4 xnor2 $T=0 0 0 0 $X=0 $Y=0
X1 1 2 8 9 10 6 7 8 ICV_2 $T=0 0 1 180 $X=-7350 $Y=0
.ENDS
***************************************
.SUBCKT ICV_11 1 2 3 4 5 6 7
** N=7 EP=7 IP=9 FDC=12
X0 2 1 5 3 4 xnor2 $T=0 0 0 0 $X=0 $Y=0
X1 1 2 7 6 inv01 $T=4900 0 0 0 $X=4900 $Y=0
.ENDS
***************************************
.SUBCKT oai32 VDD Y VSS A0 A1 A2 B1 B0
** N=12 EP=8 IP=0 FDC=10
M0 9 A0 Y VSS nmos L=1.4e-07 W=7.7e-07 $X=805 $Y=1540 $D=19
M1 Y A1 9 VSS nmos L=1.4e-07 W=7.7e-07 $X=1365 $Y=1540 $D=19
M2 9 A2 Y VSS nmos L=1.4e-07 W=7.7e-07 $X=1925 $Y=1540 $D=19
M3 VSS B1 9 VSS nmos L=1.4e-07 W=7.7e-07 $X=2485 $Y=1540 $D=19
M4 9 B0 VSS VSS nmos L=1.4e-07 W=7.7e-07 $X=3045 $Y=1540 $D=19
M5 10 A0 VDD VDD pmos L=1.4e-07 W=2.73e-06 $X=1085 $Y=4480 $D=25
M6 11 A1 10 VDD pmos L=1.4e-07 W=2.73e-06 $X=1505 $Y=4480 $D=25
M7 Y A2 11 VDD pmos L=1.4e-07 W=2.73e-06 $X=1925 $Y=4480 $D=25
M8 12 B1 Y VDD pmos L=1.4e-07 W=2.03e-06 $X=2520 $Y=4480 $D=25
M9 VDD B0 12 VDD pmos L=1.4e-07 W=2.03e-06 $X=2940 $Y=4480 $D=25
.ENDS
***************************************
.SUBCKT ICV_12 1 2 3 4 5 6 7 8 9 10 11
** N=11 EP=11 IP=13 FDC=20
X0 2 1 5 3 4 xnor2 $T=0 0 0 0 $X=0 $Y=0
X1 1 2 11 6 7 8 9 10 aoi32 $T=-3920 0 0 0 $X=-3920 $Y=0
.ENDS
***************************************
.SUBCKT ICV_13 1 2 3 4 5 6 7 8 9 10 11
** N=11 EP=11 IP=13 FDC=20
X0 2 1 5 3 4 xnor2 $T=0 0 0 0 $X=0 $Y=0
X1 1 2 11 6 7 8 9 10 aoi32 $T=8820 0 1 180 $X=4900 $Y=0
.ENDS
***************************************
.SUBCKT ICV_14 1 2 3 4 5 6 7 8
** N=8 EP=8 IP=10 FDC=14
X0 2 1 5 3 4 xnor2 $T=0 0 1 180 $X=-4900 $Y=0
X1 1 8 2 6 7 nand02 $T=0 0 0 0 $X=0 $Y=0
.ENDS
***************************************
.SUBCKT ICV_15 1 2 3 4 5 6 7 8 9 10
** N=10 EP=10 IP=12 FDC=12
X0 1 2 4 3 inv01 $T=6370 0 1 180 $X=4410 $Y=0
X1 2 6 1 5 7 8 9 10 oai32 $T=0 0 0 0 $X=0 $Y=0
.ENDS
***************************************
.SUBCKT inv02 VSS VDD Y A
** N=4 EP=4 IP=0 FDC=2
M0 Y A VSS VSS nmos L=1.4e-07 W=7.7e-07 $X=805 $Y=1750 $D=19
M1 Y A VDD VDD pmos L=1.4e-07 W=1.54e-06 $X=805 $Y=4970 $D=25
.ENDS
***************************************
.SUBCKT ICV_16 1 2 3 4 5 6 7 8 9
** N=9 EP=9 IP=12 FDC=12
X0 1 2 4 3 inv01 $T=0 0 0 0 $X=0 $Y=0
X1 1 2 9 5 6 7 4 8 aoi32 $T=5880 0 1 180 $X=1960 $Y=0
.ENDS
***************************************
.SUBCKT ICV_17 1 2 3 4 5 6 7 8
** N=8 EP=8 IP=10 FDC=20
X0 2 1 5 3 4 xnor2 $T=0 0 0 0 $X=0 $Y=0
X1 2 1 8 6 7 xnor2 $T=9800 0 1 180 $X=4900 $Y=0
.ENDS
***************************************
.SUBCKT ICV_18 1 2 3 4 5 6 7 8
** N=8 EP=8 IP=10 FDC=14
X0 2 1 5 3 4 xnor2 $T=0 0 0 0 $X=0 $Y=0
X1 1 8 2 6 7 nand02 $T=-2450 0 0 0 $X=-2450 $Y=0
.ENDS
***************************************
.SUBCKT ICV_19 1 2 3 4 5 6 7 8
** N=8 EP=8 IP=10 FDC=20
X0 2 1 5 3 4 xnor2 $T=0 0 1 180 $X=-4900 $Y=0
X1 2 1 8 6 7 xnor2 $T=0 0 0 0 $X=0 $Y=0
.ENDS
***************************************
.SUBCKT ICV_20 1 2 3 4 5 6 7 8 9 10
** N=10 EP=10 IP=12 FDC=12
X0 1 2 4 3 inv01 $T=-1960 0 0 0 $X=-1960 $Y=0
X1 1 2 10 5 6 7 8 9 aoi32 $T=0 0 0 0 $X=0 $Y=0
.ENDS
***************************************
.SUBCKT ICV_21 1 2 3 4 5 6 7 8 9
** N=9 EP=9 IP=16 FDC=24
X0 1 2 5 6 7 3 4 5 ICV_2 $T=0 0 0 0 $X=0 $Y=0
X1 1 2 9 6 3 4 8 7 aoi32 $T=7350 0 0 0 $X=7350 $Y=0
.ENDS
***************************************
.SUBCKT ICV_22 1 2 3 4 5 6 7 8 9 10 11
** N=11 EP=11 IP=13 FDC=20
X0 2 1 5 3 4 xnor2 $T=-4900 0 0 0 $X=-4900 $Y=0
X1 1 2 11 6 7 8 9 10 aoi32 $T=0 0 0 0 $X=0 $Y=0
.ENDS
***************************************
.SUBCKT ICV_23 1 2 3 4 5 6 7 8 9 10 11
** N=11 EP=11 IP=13 FDC=14
X0 1 5 2 3 4 nand02 $T=0 0 0 0 $X=0 $Y=0
X1 2 7 1 6 8 9 10 11 oai32 $T=0 0 1 180 $X=-4410 $Y=0
.ENDS
***************************************
.SUBCKT ICV_24 1 2 3 4 5 6
** N=6 EP=6 IP=8 FDC=4
X0 1 2 4 3 inv01 $T=0 0 0 0 $X=0 $Y=0
X1 1 2 6 5 inv01 $T=1960 0 0 0 $X=1960 $Y=0
.ENDS
***************************************
.SUBCKT ICV_25 1 2 3 4 5 6 7 8 9 10 11 12 13 14
** N=14 EP=14 IP=16 FDC=24
X0 1 2 6 7 8 3 4 5 ICV_2 $T=0 0 1 180 $X=-7350 $Y=0
X1 2 10 1 9 11 12 13 14 oai32 $T=0 0 0 0 $X=0 $Y=0
.ENDS
***************************************
.SUBCKT ICV_26 1 2 3 4 5 6 7
** N=7 EP=7 IP=9 FDC=6
X0 1 5 2 3 4 nand02 $T=0 0 0 0 $X=0 $Y=0
X1 1 2 7 6 inv01 $T=0 0 1 180 $X=-1960 $Y=0
.ENDS
***************************************
.SUBCKT ICV_27 1 2 3 4 5 6 7 8
** N=8 EP=8 IP=10 FDC=14
X0 2 1 5 3 4 xnor2 $T=-4900 0 0 0 $X=-4900 $Y=0
X1 1 8 2 6 7 nand02 $T=0 0 0 0 $X=0 $Y=0
.ENDS
***************************************
.SUBCKT aoi21 VSS VDD Y A1 A0 B0
** N=8 EP=6 IP=0 FDC=6
M0 7 A1 VSS VSS nmos L=1.4e-07 W=7.7e-07 $X=805 $Y=1170 $D=19
M1 Y A0 7 VSS nmos L=1.4e-07 W=7.7e-07 $X=1225 $Y=1170 $D=19
M2 VSS B0 Y VSS nmos L=1.4e-07 W=3.5e-07 $X=1820 $Y=1590 $D=19
M3 VDD A1 8 VDD pmos L=1.4e-07 W=1.19e-06 $X=805 $Y=6020 $D=25
M4 8 A0 VDD VDD pmos L=1.4e-07 W=1.19e-06 $X=1365 $Y=6020 $D=25
M5 Y B0 8 VDD pmos L=1.4e-07 W=1.19e-06 $X=1925 $Y=6020 $D=25
.ENDS
***************************************
.SUBCKT ICV_28 1 2 3 4 5 6 7
** N=7 EP=7 IP=9 FDC=12
X0 2 1 5 3 4 xnor2 $T=0 0 1 180 $X=-4900 $Y=0
X1 1 2 7 6 inv01 $T=0 0 0 0 $X=0 $Y=0
.ENDS
***************************************
.SUBCKT mux21 VSS VDD Y S0 A1 A0
** N=12 EP=6 IP=0 FDC=12
M0 VSS S0 7 VSS nmos L=1.4e-07 W=3.5e-07 $X=850 $Y=1610 $D=19
M1 8 S0 VSS VSS nmos L=1.4e-07 W=7.7e-07 $X=1445 $Y=1190 $D=19
M2 9 A1 8 VSS nmos L=1.4e-07 W=7.7e-07 $X=1865 $Y=1190 $D=19
M3 10 A0 9 VSS nmos L=1.4e-07 W=7.7e-07 $X=2425 $Y=1190 $D=19
M4 VSS 7 10 VSS nmos L=1.4e-07 W=7.7e-07 $X=2845 $Y=1190 $D=19
M5 Y 9 VSS VSS nmos L=1.4e-07 W=7.7e-07 $X=3405 $Y=1190 $D=19
M6 VDD S0 7 VDD pmos L=1.4e-07 W=7.7e-07 $X=850 $Y=5670 $D=25
M7 11 S0 VDD VDD pmos L=1.4e-07 W=1.54e-06 $X=1445 $Y=5670 $D=25
M8 9 A0 11 VDD pmos L=1.4e-07 W=1.54e-06 $X=1865 $Y=5670 $D=25
M9 12 A1 9 VDD pmos L=1.4e-07 W=1.54e-06 $X=2425 $Y=5670 $D=25
M10 VDD 7 12 VDD pmos L=1.4e-07 W=1.54e-06 $X=2845 $Y=5670 $D=25
M11 Y 9 VDD VDD pmos L=1.4e-07 W=1.54e-06 $X=3405 $Y=5670 $D=25
.ENDS
***************************************
.SUBCKT ICV_29 1 2 3 4 5 6 7 8 9 10 11 12
** N=12 EP=12 IP=16 FDC=28
X0 1 2 5 6 7 3 4 5 ICV_2 $T=0 0 0 0 $X=0 $Y=0
X1 1 2 10 11 12 8 9 10 ICV_2 $T=7350 0 0 0 $X=7350 $Y=0
.ENDS
***************************************
.SUBCKT ICV_30 1 2 3 4 5 6 7 8 9 10 11 12 13 14
** N=14 EP=14 IP=16 FDC=20
X0 1 2 8 3 4 5 6 7 aoi32 $T=0 0 0 0 $X=0 $Y=0
X1 1 2 14 9 10 11 12 13 aoi32 $T=3920 0 0 0 $X=3920 $Y=0
.ENDS
***************************************
.SUBCKT and02 VSS VDD Y A0 A1
** N=7 EP=5 IP=0 FDC=6
M0 7 A0 6 VSS nmos L=1.4e-07 W=7.7e-07 $X=945 $Y=1190 $D=19
M1 VSS A1 7 VSS nmos L=1.4e-07 W=7.7e-07 $X=1365 $Y=1190 $D=19
M2 Y 6 VSS VSS nmos L=1.4e-07 W=3.5e-07 $X=1960 $Y=1610 $D=19
M3 6 A0 VDD VDD pmos L=1.4e-07 W=1.05e-06 $X=805 $Y=6160 $D=25
M4 VDD A1 6 VDD pmos L=1.4e-07 W=1.05e-06 $X=1365 $Y=6160 $D=25
M5 Y 6 VDD VDD pmos L=1.4e-07 W=7.7e-07 $X=1960 $Y=6160 $D=25
.ENDS
***************************************
.SUBCKT ICV_31 1 2 3 4 5 6 7 8 9 10 11
** N=11 EP=11 IP=16 FDC=24
X0 1 2 5 6 7 3 4 5 ICV_2 $T=0 0 0 0 $X=0 $Y=0
X1 2 9 1 8 10 6 7 11 oai32 $T=7350 0 0 0 $X=7350 $Y=0
.ENDS
***************************************
.SUBCKT ICV_32 1 2 3 4 5 6 7 8 9 10 11
** N=11 EP=11 IP=13 FDC=20
X0 2 1 5 3 4 xnor2 $T=0 0 0 0 $X=0 $Y=0
X1 1 2 11 6 7 8 9 10 aoi32 $T=4900 0 0 0 $X=4900 $Y=0
.ENDS
***************************************
.SUBCKT nor03 Y VDD VSS A0 A1 A2
** N=8 EP=6 IP=0 FDC=6
M0 VSS A0 Y VSS nmos L=1.4e-07 W=4.2e-07 $X=875 $Y=1190 $D=19
M1 Y A1 VSS VSS nmos L=1.4e-07 W=4.2e-07 $X=1435 $Y=1190 $D=19
M2 VSS A2 Y VSS nmos L=1.4e-07 W=4.2e-07 $X=1995 $Y=1190 $D=19
M3 7 A0 VDD VDD pmos L=1.4e-07 W=1.68e-06 $X=875 $Y=5530 $D=25
M4 8 A1 7 VDD pmos L=1.4e-07 W=1.68e-06 $X=1295 $Y=5530 $D=25
M5 Y A2 8 VDD pmos L=1.4e-07 W=1.68e-06 $X=1715 $Y=5530 $D=25
.ENDS
***************************************
.SUBCKT ICV_33 1 2 3 4 5 6 7 8 9 10 11
** N=11 EP=11 IP=13 FDC=20
X0 2 1 5 3 4 xnor2 $T=0 0 1 180 $X=-4900 $Y=0
X1 1 2 11 6 7 8 9 10 aoi32 $T=0 0 0 0 $X=0 $Y=0
.ENDS
***************************************
.SUBCKT ICV_34 1 2 3 4 5 6 7
** N=7 EP=7 IP=9 FDC=12
X0 2 1 5 3 4 xnor2 $T=1960 0 0 0 $X=1960 $Y=0
X1 1 2 7 6 inv01 $T=0 0 0 0 $X=0 $Y=0
.ENDS
***************************************
.SUBCKT ICV_35 1 2 3 4 5 6 7 8
** N=8 EP=8 IP=10 FDC=14
X0 2 1 5 3 4 xnor2 $T=0 0 0 0 $X=0 $Y=0
X1 1 8 2 6 7 nand02 $T=7350 0 1 180 $X=4900 $Y=0
.ENDS
***************************************
.SUBCKT ICV_36 1 2 3 4 5 6
** N=6 EP=6 IP=8 FDC=4
X0 1 2 4 3 inv01 $T=0 0 0 0 $X=0 $Y=0
X1 1 2 6 5 inv01 $T=3920 0 1 180 $X=1960 $Y=0
.ENDS
***************************************
.SUBCKT xor2 VSS VDD Y A1 A0
** N=10 EP=5 IP=0 FDC=12
M0 7 A0 6 VSS nmos L=1.4e-07 W=7.7e-07 $X=805 $Y=1330 $D=19
M1 VSS A1 7 VSS nmos L=1.4e-07 W=7.7e-07 $X=1225 $Y=1330 $D=19
M2 8 6 VSS VSS nmos L=1.4e-07 W=7.7e-07 $X=1785 $Y=1330 $D=19
M3 9 A1 8 VSS nmos L=1.4e-07 W=7.7e-07 $X=2345 $Y=1330 $D=19
M4 8 A0 9 VSS nmos L=1.4e-07 W=7.7e-07 $X=2905 $Y=1330 $D=19
M5 Y 9 VSS VSS nmos L=1.4e-07 W=3.5e-07 $X=4025 $Y=1330 $D=19
M6 6 A0 VDD VDD pmos L=1.4e-07 W=1.19e-06 $X=875 $Y=5880 $D=25
M7 VDD A1 6 VDD pmos L=1.4e-07 W=1.19e-06 $X=1435 $Y=5880 $D=25
M8 9 6 VDD VDD pmos L=1.4e-07 W=1.19e-06 $X=1995 $Y=5880 $D=25
M9 10 A1 9 VDD pmos L=1.4e-07 W=2.24e-06 $X=2590 $Y=4830 $D=25
M10 VDD A0 10 VDD pmos L=1.4e-07 W=2.24e-06 $X=3010 $Y=4830 $D=25
M11 Y 9 VDD VDD pmos L=1.4e-07 W=7.7e-07 $X=3605 $Y=4830 $D=25
.ENDS
***************************************
.SUBCKT ICV_37 1 2 3 4 5 6 7 8
** N=8 EP=8 IP=10 FDC=14
X0 2 1 5 3 4 xnor2 $T=0 0 0 0 $X=0 $Y=0
X1 1 8 2 6 7 nand02 $T=0 0 1 180 $X=-2450 $Y=0
.ENDS
***************************************
.SUBCKT ICV_38 1 2 3 4 5 6 7
** N=7 EP=7 IP=9 FDC=12
X0 2 1 5 3 4 xnor2 $T=0 0 0 0 $X=0 $Y=0
X1 1 2 7 6 inv01 $T=-1960 0 0 0 $X=-1960 $Y=0
.ENDS
***************************************
.SUBCKT ICV_39 1 2 3 4 5 6 7 8 9 10 11
** N=11 EP=11 IP=13 FDC=20
X0 2 1 5 3 4 xnor2 $T=0 0 0 0 $X=0 $Y=0
X1 2 7 1 6 8 9 10 11 oai32 $T=4900 0 0 0 $X=4900 $Y=0
.ENDS
***************************************
.SUBCKT ICV_40 1 2 3 4 5 6 7 8 9
** N=9 EP=9 IP=12 FDC=12
X0 1 2 4 3 inv01 $T=0 0 0 0 $X=0 $Y=0
X1 2 6 1 5 7 8 9 4 oai32 $T=6370 0 1 180 $X=1960 $Y=0
.ENDS
***************************************
.SUBCKT ICV_41 1 2 3 4 5 6 7 8 9 10 11
** N=11 EP=11 IP=13 FDC=20
X0 2 1 5 3 4 xnor2 $T=0 0 0 0 $X=0 $Y=0
X1 2 7 1 6 8 9 10 11 oai32 $T=-4410 0 0 0 $X=-4410 $Y=0
.ENDS
***************************************
.SUBCKT ICV_42 1 2 3 4 5 6 7 8
** N=8 EP=8 IP=10 FDC=8
X0 1 5 2 3 4 nand02 $T=-2450 0 0 0 $X=-2450 $Y=0
X1 1 8 2 6 7 nand02 $T=0 0 0 0 $X=0 $Y=0
.ENDS
***************************************
.SUBCKT ICV_43 1 2 3 4 5 6 7 8
** N=8 EP=8 IP=10 FDC=8
X0 1 5 2 3 4 nand02 $T=0 0 0 0 $X=0 $Y=0
X1 1 8 2 6 7 nand02 $T=2450 0 0 0 $X=2450 $Y=0
.ENDS
***************************************
.SUBCKT ICV_44 1 2 3 4 5 6 7 8 9 10 11
** N=11 EP=11 IP=13 FDC=20
X0 2 1 5 3 4 xnor2 $T=0 0 0 0 $X=0 $Y=0
X1 2 7 1 6 8 9 10 11 oai32 $T=9310 0 1 180 $X=4900 $Y=0
.ENDS
***************************************
.SUBCKT ICV_45 1 2 3 4 5 6 7 8 9 10 11
** N=11 EP=11 IP=13 FDC=20
X0 2 1 5 3 4 xnor2 $T=3920 0 0 0 $X=3920 $Y=0
X1 1 2 11 6 7 8 9 10 aoi32 $T=0 0 0 0 $X=0 $Y=0
.ENDS
***************************************
.SUBCKT ICV_46 1 2 3 4 5 6 7 8 9 10 11 12 13 14
** N=14 EP=14 IP=16 FDC=30
X0 1 2 3 4 5 6 7 8 ICV_3 $T=0 0 0 0 $X=0 $Y=0
X1 1 2 14 9 10 11 12 13 aoi32 $T=9800 0 0 0 $X=9800 $Y=0
.ENDS
***************************************
.SUBCKT nand03 VSS Y VDD A2 A1 A0
** N=8 EP=6 IP=0 FDC=6
M0 7 A2 VSS VSS nmos L=1.4e-07 W=1.19e-06 $X=915 $Y=1190 $D=19
M1 8 A1 7 VSS nmos L=1.4e-07 W=1.19e-06 $X=1335 $Y=1190 $D=19
M2 Y A0 8 VSS nmos L=1.4e-07 W=1.19e-06 $X=1755 $Y=1190 $D=19
M3 VDD A2 Y VDD pmos L=1.4e-07 W=1.26e-06 $X=775 $Y=5950 $D=25
M4 Y A1 VDD VDD pmos L=1.4e-07 W=1.26e-06 $X=1335 $Y=5950 $D=25
M5 VDD A0 Y VDD pmos L=1.4e-07 W=1.26e-06 $X=1895 $Y=5950 $D=25
.ENDS
***************************************
.SUBCKT Multiplier VSS VDD Product[1] Product[28] Product[23] B[4] B[14] B[12] B[7] B[15] A[15] A[7] A[8] A[10] A[6] A[3] B[0] B[5] Product[22] A[11]
+ A[9] B[3] B[9] Product[25] B[1] Product[6] Product[8] Product[20] Product[11] Product[18] B[6] Product[16] Product[17] Product[24] A[1] A[0] B[2] B[13] A[4] A[5]
+ B[8] Product[29] Product[0] A[2] A[14] B[10] B[11] A[12] Product[19] Product[12] Product[26] Product[2] A[13] Product[30] Product[13] Product[27] Product[14] Product[10] Product[3] Product[7]
+ Product[21] Product[15] Product[5] Product[9] Product[4] Product[31]
** N=1193 EP=66 IP=5281 FDC=8434
M0 VSS 6 1 VSS nmos L=1.4e-07 W=3.5e-07 $X=930 $Y=106370 $D=19
M1 3 B[0] VSS VSS nmos L=1.4e-07 W=1.19e-06 $X=1525 $Y=105530 $D=19
M2 4 A[15] 3 VSS nmos L=1.4e-07 W=1.19e-06 $X=1945 $Y=105530 $D=19
M3 6 42 4 VSS nmos L=1.4e-07 W=1.19e-06 $X=2365 $Y=105530 $D=19
M4 7 B[0] VSS VSS nmos L=1.4e-07 W=7.7e-07 $X=14685 $Y=26220 $D=19
M5 8 A[1] 7 VSS nmos L=1.4e-07 W=7.7e-07 $X=15105 $Y=26220 $D=19
M6 Product[1] 11 VSS VSS nmos L=1.4e-07 W=3.5e-07 $X=15595 $Y=875 $D=19
M7 10 B[1] 8 VSS nmos L=1.4e-07 W=7.7e-07 $X=15665 $Y=26220 $D=19
M8 VSS A[0] 10 VSS nmos L=1.4e-07 W=7.7e-07 $X=16085 $Y=26220 $D=19
M9 VSS 8 Product[1] VSS nmos L=1.4e-07 W=3.5e-07 $X=16155 $Y=875 $D=19
M10 11 124 VSS VSS nmos L=1.4e-07 W=3.5e-07 $X=16715 $Y=875 $D=19
M11 VDD 6 1 VDD pmos L=1.4e-07 W=7.7e-07 $X=790 $Y=110150 $D=25
M12 6 B[0] VDD VDD pmos L=1.4e-07 W=1.4e-06 $X=1385 $Y=110150 $D=25
M13 VDD A[15] 6 VDD pmos L=1.4e-07 W=1.4e-06 $X=1945 $Y=110150 $D=25
M14 6 42 VDD VDD pmos L=1.4e-07 W=1.4e-06 $X=2505 $Y=110150 $D=25
M15 VDD B[0] 12 VDD pmos L=1.4e-07 W=1.19e-06 $X=14545 $Y=31050 $D=25
M16 12 A[1] VDD VDD pmos L=1.4e-07 W=1.19e-06 $X=15105 $Y=31050 $D=25
M17 8 B[1] 12 VDD pmos L=1.4e-07 W=1.19e-06 $X=15665 $Y=31050 $D=25
M18 13 11 Product[1] VDD pmos L=1.4e-07 W=1.19e-06 $X=15700 $Y=5705 $D=25
M19 VDD 8 13 VDD pmos L=1.4e-07 W=1.19e-06 $X=16120 $Y=5705 $D=25
M20 12 A[0] 8 VDD pmos L=1.4e-07 W=1.19e-06 $X=16225 $Y=31050 $D=25
M21 11 124 VDD VDD pmos L=1.4e-07 W=7.7e-07 $X=16715 $Y=5705 $D=25
X22 VDD VSS Product[28] 51 39 xnor2 $T=4920 131195 1 180 $X=20 $Y=131195
X23 VDD VSS 97 128 119 xnor2 $T=18640 144925 1 180 $X=13740 $Y=144925
X24 VDD VSS 157 134 153 xnor2 $T=19130 91315 0 0 $X=19130 $Y=91315
X25 VDD VSS 208 211 133 xnor2 $T=35300 156650 1 180 $X=30400 $Y=156650
X26 VDD VSS 212 162 106 xnor2 $T=31870 25030 0 0 $X=31870 $Y=25030
X27 VDD VSS 448 424 418 xnor2 $T=84300 25030 0 0 $X=84300 $Y=25030
X28 VDD VSS 130 440 434 xnor2 $T=92140 156650 1 180 $X=87240 $Y=156650
X29 VDD VSS 503 477 479 xnor2 $T=97530 13255 0 0 $X=97530 $Y=13255
X30 VDD VSS 554 530 524 xnor2 $T=108800 91315 0 0 $X=108800 $Y=91315
X31 VDD VSS 567 531 471 xnor2 $T=112720 117160 0 0 $X=112720 $Y=117160
X32 VDD VSS 347 607 581 xnor2 $T=128400 144925 1 180 $X=123500 $Y=144925
X33 VDD VSS Product[30] 199 617 xnor2 $T=127420 -315 0 0 $X=127420 $Y=-315
X34 VDD VSS 623 542 620 xnor2 $T=127910 117160 0 0 $X=127910 $Y=117160
X35 VDD VSS 667 604 663 xnor2 $T=139670 -315 0 0 $X=139670 $Y=-315
X36 VDD VSS 76 676 665 xnor2 $T=153390 65145 1 180 $X=148490 $Y=65145
X37 VDD VSS 756 766 784 xnor2 $T=183280 13255 1 180 $X=178380 $Y=13255
X38 VDD VSS 830 866 820 xnor2 $T=198960 91315 1 180 $X=194060 $Y=91315
X39 VDD VSS 797 863 857 xnor2 $T=199450 156650 1 180 $X=194550 $Y=156650
X40 VDD VSS 826 948 838 xnor2 $T=224440 65145 1 180 $X=219540 $Y=65145
X41 VDD VSS 977 1003 987 xnor2 $T=241590 50625 1 180 $X=236690 $Y=50625
X42 VDD VSS 740 750 1022 xnor2 $T=249430 131195 1 180 $X=244530 $Y=131195
X43 VDD VSS 1090 966 1032 xnor2 $T=264130 78610 0 0 $X=264130 $Y=78610
X44 VDD VSS 1063 1079 1046 xnor2 $T=269520 13255 1 180 $X=264620 $Y=13255
X45 VDD VSS 1038 1122 1103 xnor2 $T=278830 156650 1 180 $X=273930 $Y=156650
X46 VDD VSS 1130 1161 1095 xnor2 $T=295000 -315 1 180 $X=290100 $Y=-315
X47 VDD VSS 1125 1170 1175 xnor2 $T=295980 171070 0 0 $X=295980 $Y=171070
X48 VDD VSS 947 1061 1155 xnor2 $T=301860 13255 1 180 $X=296960 $Y=13255
X49 VDD VSS 1169 1185 952 xnor2 $T=298920 78610 0 0 $X=298920 $Y=78610
X50 VDD VSS 1110 1138 1176 xnor2 $T=299900 38320 0 0 $X=299900 $Y=38320
X51 VDD VSS 617 1181 722 xnor2 $T=300390 25030 0 0 $X=300390 $Y=25030
X52 VDD VSS 1158 1173 1166 xnor2 $T=305290 117160 1 180 $X=300390 $Y=117160
X53 VSS 19 VDD B[5] A[9] nand02 $T=2470 65145 1 180 $X=20 $Y=65145
X54 VSS 37 VDD B[15] A[6] nand02 $T=20 117160 0 0 $X=20 $Y=117160
X55 VSS 36 VDD B[5] A[15] nand02 $T=2470 144925 1 180 $X=20 $Y=144925
X56 VSS 18 VDD B[0] A[8] nand02 $T=2470 171070 1 180 $X=20 $Y=171070
X57 VSS 60 VDD B[0] A[11] nand02 $T=2960 -315 0 0 $X=2960 $Y=-315
X58 VSS 115 VDD B[3] A[6] nand02 $T=14230 171070 1 180 $X=11780 $Y=171070
X59 VSS 122 VDD B[9] A[8] nand02 $T=13740 50625 0 0 $X=13740 $Y=50625
X60 VSS 136 VDD B[15] A[4] nand02 $T=18640 50625 1 180 $X=16190 $Y=50625
X61 VSS 226 VDD B[14] A[5] nand02 $T=34320 50625 0 0 $X=34320 $Y=50625
X62 VSS 239 VDD B[14] A[10] nand02 $T=41670 156650 1 180 $X=39220 $Y=156650
X63 VSS 247 VDD B[15] A[7] nand02 $T=41670 131195 0 0 $X=41670 $Y=131195
X64 VSS 269 VDD B[13] A[2] nand02 $T=46570 38320 1 180 $X=44120 $Y=38320
X65 VSS 289 VDD B[6] A[9] nand02 $T=50980 131195 1 180 $X=48530 $Y=131195
X66 VSS 290 VDD B[2] 230 nand02 $T=49020 -315 0 0 $X=49020 $Y=-315
X67 VSS 326 VDD B[10] A[15] nand02 $T=57350 144925 0 0 $X=57350 $Y=144925
X68 VSS 354 VDD B[12] A[10] nand02 $T=65680 13255 1 180 $X=63230 $Y=13255
X69 VSS 385 VDD B[12] A[7] nand02 $T=73030 117160 0 0 $X=73030 $Y=117160
X70 VSS 394 VDD B[12] A[11] nand02 $T=73520 144925 0 0 $X=73520 $Y=144925
X71 VSS 369 VDD B[7] A[8] nand02 $T=78420 144925 1 180 $X=75970 $Y=144925
X72 VSS 431 VDD B[4] A[15] nand02 $T=80870 156650 0 0 $X=80870 $Y=156650
X73 VSS 462 VDD B[0] A[12] nand02 $T=93610 131195 1 180 $X=91160 $Y=131195
X74 VSS 488 VDD B[4] A[5] nand02 $T=97530 144925 0 0 $X=97530 $Y=144925
X75 VSS 516 VDD B[1] A[11] nand02 $T=107820 117160 1 180 $X=105370 $Y=117160
X76 VSS 570 VDD B[11] A[14] nand02 $T=120560 171070 1 180 $X=118110 $Y=171070
X77 VSS 595 VDD B[1] A[1] nand02 $T=130360 13255 1 180 $X=127910 $Y=13255
X78 VSS 605 VDD B[2] A[8] nand02 $T=130360 65145 1 180 $X=127910 $Y=65145
X79 VSS 619 VDD B[1] A[9] nand02 $T=133790 25030 1 180 $X=131340 $Y=25030
X80 VSS 626 VDD B[15] A[12] nand02 $T=134280 104340 1 180 $X=131830 $Y=104340
X81 VSS 635 VDD B[1] A[12] nand02 $T=133300 131195 0 0 $X=133300 $Y=131195
X82 VSS 639 VDD B[2] A[14] nand02 $T=134770 50625 0 0 $X=134770 $Y=50625
X83 VSS 637 VDD B[3] A[13] nand02 $T=137710 171070 1 180 $X=135260 $Y=171070
X84 VSS 672 VDD B[13] A[3] nand02 $T=143100 25030 0 0 $X=143100 $Y=25030
X85 VSS 671 VDD A[0] B[11] nand02 $T=146530 65145 1 180 $X=144080 $Y=65145
X86 VSS 688 VDD B[5] A[11] nand02 $T=146530 78610 0 0 $X=146530 $Y=78610
X87 VSS 659 VDD B[13] A[8] nand02 $T=149960 171070 1 180 $X=147510 $Y=171070
X88 VSS 655 VDD A[0] B[12] nand02 $T=150450 104340 0 0 $X=150450 $Y=104340
X89 VSS 771 VDD B[0] A[10] nand02 $T=171030 13255 0 0 $X=171030 $Y=13255
X90 VSS 774 VDD B[5] A[8] nand02 $T=171030 25030 0 0 $X=171030 $Y=25030
X91 VSS 770 VDD B[11] A[15] nand02 $T=175440 156650 1 180 $X=172990 $Y=156650
X92 VSS 801 VDD B[6] A[7] nand02 $T=178870 78610 0 0 $X=178870 $Y=78610
X93 VSS 811 VDD B[7] A[10] nand02 $T=199940 38320 1 180 $X=197490 $Y=38320
X94 VSS 804 VDD B[13] A[14] nand02 $T=205330 131195 1 180 $X=202880 $Y=131195
X95 VSS 860 VDD B[8] 230 nand02 $T=206310 -315 1 180 $X=203860 $Y=-315
X96 VSS 924 VDD B[9] A[14] nand02 $T=214640 78610 0 0 $X=214640 $Y=78610
X97 VSS 897 VDD B[11] A[13] nand02 $T=218560 171070 1 180 $X=216110 $Y=171070
X98 VSS 939 VDD B[10] A[6] nand02 $T=218560 13255 0 0 $X=218560 $Y=13255
X99 VSS 965 VDD B[0] A[15] nand02 $T=226890 -315 0 0 $X=226890 $Y=-315
X100 VSS 962 VDD B[0] A[5] nand02 $T=227380 156650 0 0 $X=227380 $Y=156650
X101 VSS 957 VDD B[13] A[4] nand02 $T=230810 144925 1 180 $X=228360 $Y=144925
X102 VSS 963 VDD B[13] A[1] nand02 $T=234730 117160 1 180 $X=232280 $Y=117160
X103 VSS 986 VDD B[4] A[3] nand02 $T=232770 156650 0 0 $X=232770 $Y=156650
X104 VSS 945 VDD B[11] A[12] nand02 $T=236200 144925 1 180 $X=233750 $Y=144925
X105 VSS 1003 VDD B[1] A[3] nand02 $T=243060 38320 1 180 $X=240610 $Y=38320
X106 VSS 1018 VDD B[0] A[9] nand02 $T=243550 -315 0 0 $X=243550 $Y=-315
X107 VSS 1028 VDD B[10] A[5] nand02 $T=251390 144925 1 180 $X=248940 $Y=144925
X108 VSS 1015 VDD A[0] B[10] nand02 $T=253840 91315 1 180 $X=251390 $Y=91315
X109 VSS 1044 VDD B[6] A[1] nand02 $T=253350 156650 0 0 $X=253350 $Y=156650
X110 VSS 922 VDD B[3] A[7] nand02 $T=258250 117160 1 180 $X=255800 $Y=117160
X111 VSS 1077 VDD B[3] A[9] nand02 $T=261190 25030 0 0 $X=261190 $Y=25030
X112 VSS 1072 VDD B[4] A[4] nand02 $T=261190 144925 0 0 $X=261190 $Y=144925
X113 VSS 1083 VDD B[8] A[2] nand02 $T=265110 117160 0 0 $X=265110 $Y=117160
X114 VSS 1060 VDD A[0] B[6] nand02 $T=271480 -315 1 180 $X=269030 $Y=-315
X115 VSS 1146 VDD B[7] A[1] nand02 $T=288140 25030 1 180 $X=285690 $Y=25030
X116 VSS 1142 VDD B[10] A[13] nand02 $T=289120 171070 1 180 $X=286670 $Y=171070
X117 VSS 1163 VDD B[9] 230 nand02 $T=293040 65145 1 180 $X=290590 $Y=65145
X118 VSS 1173 VDD B[9] A[13] nand02 $T=291570 117160 0 0 $X=291570 $Y=117160
X119 VSS 1182 VDD B[8] A[3] nand02 $T=293040 65145 0 0 $X=293040 $Y=65145
X120 VSS 1186 VDD B[9] A[4] nand02 $T=295000 144925 0 0 $X=295000 $Y=144925
X121 VSS VDD 71 55 Product[22] B[4] A[10] 41 ICV_1 $T=20 91315 0 0 $X=20 $Y=91315
X122 VSS VDD 88 78 Product[18] B[0] A[6] 65 ICV_1 $T=2960 13255 0 0 $X=2960 $Y=13255
X123 VSS VDD 406 360 338 B[10] A[8] 406 ICV_1 $T=75480 50625 0 0 $X=75480 $Y=50625
X124 VSS VDD 435 463 446 B[11] A[8] 450 ICV_1 $T=86750 38320 0 0 $X=86750 $Y=38320
X125 VSS VDD 546 538 129 B[13] A[5] 525 ICV_1 $T=106350 171070 0 0 $X=106350 $Y=171070
X126 VSS VDD 605 592 589 B[10] A[1] 594 ICV_1 $T=120560 65145 0 0 $X=120560 $Y=65145
X127 VSS VDD 579 613 108 B[0] A[13] 610 ICV_1 $T=125460 78610 0 0 $X=125460 $Y=78610
X128 VSS VDD 726 715 556 B[6] 230 703 ICV_1 $T=152900 50625 0 0 $X=152900 $Y=50625
X129 VSS VDD 641 840 474 A[0] B[5] 831 ICV_1 $T=187200 25030 0 0 $X=187200 $Y=25030
X130 VSS VDD 832 810 745 B[12] A[14] 832 ICV_1 $T=187200 156650 0 0 $X=187200 $Y=156650
X131 VSS VDD 847 837 851 B[7] A[13] 885 ICV_1 $T=203370 104340 0 0 $X=203370 $Y=104340
X132 VSS VDD 956 950 739 A[0] B[14] 941 ICV_1 $T=220030 156650 0 0 $X=220030 $Y=156650
X133 VSS VDD 961 903 872 B[3] A[5] 961 ICV_1 $T=225910 171070 0 0 $X=225910 $Y=171070
X134 VSS VDD 1019 1001 982 B[1] A[14] 1019 ICV_1 $T=243060 38320 0 0 $X=243060 $Y=38320
X135 VSS VDD 1077 597 1026 B[8] A[4] 1082 ICV_1 $T=263640 25030 0 0 $X=263640 $Y=25030
X136 VSS VDD 1127 1085 1068 B[8] A[5] 1127 ICV_1 $T=276380 144925 0 0 $X=276380 $Y=144925
X137 VSS VDD 1102 1104 1074 B[11] A[5] 1133 ICV_1 $T=277850 13255 0 0 $X=277850 $Y=13255
X138 VSS VDD 1146 1129 1145 A[0] B[9] 1126 ICV_1 $T=278340 25030 0 0 $X=278340 $Y=25030
X139 VSS VDD 1108 1141 1089 B[5] A[2] 1122 ICV_1 $T=278830 156650 0 0 $X=278830 $Y=156650
X140 VSS VDD 1180 1150 1152 B[10] A[4] 1180 ICV_1 $T=293040 104340 0 0 $X=293040 $Y=104340
X141 VSS VDD 1182 1128 1113 B[10] 230 1185 ICV_1 $T=295490 65145 0 0 $X=295490 $Y=65145
X142 VSS VDD 1186 1174 1149 B[10] A[3] 1188 ICV_1 $T=297450 144925 0 0 $X=297450 $Y=144925
X143 VSS VDD 1189 1183 1175 B[7] A[2] 1189 ICV_1 $T=297450 156650 0 0 $X=297450 $Y=156650
X144 VSS VDD 33 57 55 B[7] A[15] 33 ICV_2 $T=20 50625 0 0 $X=20 $Y=50625
X145 VSS VDD 34 63 67 B[4] A[7] 34 ICV_2 $T=20 78610 0 0 $X=20 $Y=78610
X146 VSS VDD 19 76 86 B[9] A[15] 59 ICV_2 $T=2470 65145 0 0 $X=2470 $Y=65145
X147 VSS VDD 93 97 114 B[5] A[7] 93 ICV_2 $T=8350 104340 0 0 $X=8350 $Y=104340
X148 VSS VDD 142 138 101 B[2] A[15] 142 ICV_2 $T=17660 -315 0 0 $X=17660 $Y=-315
X149 VSS VDD 143 159 39 B[13] A[15] 143 ICV_2 $T=18150 131195 0 0 $X=18150 $Y=131195
X150 VSS VDD 172 188 181 B[5] A[6] 172 ICV_2 $T=24520 25030 0 0 $X=24520 $Y=25030
X151 VSS VDD 173 192 200 B[4] A[9] 173 ICV_2 $T=24520 38320 0 0 $X=24520 $Y=38320
X152 VSS VDD 190 206 225 B[15] A[2] 190 ICV_2 $T=27950 -315 0 0 $X=27950 $Y=-315
X153 VSS VDD 238 219 235 B[5] A[10] 238 ICV_2 $T=36770 25030 0 0 $X=36770 $Y=25030
X154 VSS VDD 255 198 276 B[15] A[10] 255 ICV_2 $T=40690 104340 0 0 $X=40690 $Y=104340
X155 VSS VDD 314 331 335 B[13] A[6] 314 ICV_2 $T=55390 91315 0 0 $X=55390 $Y=91315
X156 VSS VDD 304 205 342 B[8] A[8] 312 ICV_2 $T=55880 13255 0 0 $X=55880 $Y=13255
X157 VSS VDD 357 352 368 B[14] A[11] 357 ICV_2 $T=64700 78610 0 0 $X=64700 $Y=78610
X158 VSS VDD 385 393 407 B[5] A[12] 387 ICV_2 $T=71070 104340 0 0 $X=71070 $Y=104340
X159 VSS VDD 404 282 422 B[15] A[11] 404 ICV_2 $T=75970 65145 0 0 $X=75970 $Y=65145
X160 VSS VDD 419 367 444 B[7] A[9] 419 ICV_2 $T=79400 38320 0 0 $X=79400 $Y=38320
X161 VSS VDD 461 474 475 B[1] A[10] 461 ICV_2 $T=89200 25030 0 0 $X=89200 $Y=25030
X162 VSS VDD 515 532 496 B[3] A[3] 515 ICV_2 $T=103410 78610 0 0 $X=103410 $Y=78610
X163 VSS VDD 536 194 553 B[3] A[8] 536 ICV_2 $T=108310 25030 0 0 $X=108310 $Y=25030
X164 VSS VDD 548 561 511 B[9] A[7] 548 ICV_2 $T=111250 50625 0 0 $X=111250 $Y=50625
X165 VSS VDD 587 601 585 B[14] A[14] 587 ICV_2 $T=120560 117160 0 0 $X=120560 $Y=117160