* LVS netlist generated with ICnet by 'bxk5113' on Wed Nov 20 2019 at 10:43:50

*
* Globals.
*
.global VSS VDD

*
* Component pathname : $GDKGATES/oai32
*
.subckt oai32  Y A0 A1 A2 B0 B1 VDD_esc1 VSS_esc2

        MN5 Y A2 N$6 VSS_esc2 nmos l=0.14u w=0.77u m=1
        MN4 N$6 B1 VSS_esc2 VSS_esc2 nmos l=0.14u w=0.77u m=1
        MP5 Y B1 N$4 VDD_esc1 pmos l=0.14u w=2.03u m=1
        MN3 N$6 B0 VSS_esc2 VSS_esc2 nmos l=0.14u w=0.77u m=1
        MN2 Y A1 N$6 VSS_esc2 nmos l=0.14u w=0.77u m=1
        MN1 Y A0 N$6 VSS_esc2 nmos l=0.14u w=0.77u m=1
        MP3 Y A2 N$12 VDD_esc1 pmos l=0.14u w=2.73u m=1
        MP2 N$12 A1 N$5 VDD_esc1 pmos l=0.14u w=2.73u m=1
        MP1 N$5 A0 VDD_esc1 VDD_esc1 pmos l=0.14u w=2.73u m=1
        MP4 N$4 B0 VDD_esc1 VDD_esc1 pmos l=0.14u w=2.03u m=1
.ends oai32

*
* Component pathname : $GDKGATES/xnor2
*
.subckt xnor2  Y A0 A1 VDD_esc1 VSS_esc2

        MP5 N$9 A1 VDD_esc1 VDD_esc1 pmos l=0.14u w=1.19u m=1
        MP4 N$9 A0 VDD_esc1 VDD_esc1 pmos l=0.14u w=1.19u m=1
        MN4 N$9 A0 N$8 VSS_esc2 nmos l=0.14u w=0.77u m=1
        MN3 N$3 N$9 VSS_esc2 VSS_esc2 nmos l=0.14u w=0.77u m=1
        MN2 Y A1 N$3 VSS_esc2 nmos l=0.14u w=0.77u m=1
        MN1 Y A0 N$3 VSS_esc2 nmos l=0.14u w=0.77u m=1
        MP3 Y A1 N$1 VDD_esc1 pmos l=0.14u w=2.24u m=1
        MP2 Y N$9 VDD_esc1 VDD_esc1 pmos l=0.14u w=1.19u m=1
        MP1 N$1 A0 VDD_esc1 VDD_esc1 pmos l=0.14u w=2.24u m=1
        MN5 N$8 A1 VSS_esc2 VSS_esc2 nmos l=0.14u w=0.77u m=1
.ends xnor2

*
* Component pathname : $GDKGATES/inv01
*
.subckt inv01  Y A VDD_esc1 VSS_esc2

        MP1 Y A VDD_esc1 VDD_esc1 pmos l=0.14u w=0.77u m=1
        MN1 Y A VSS_esc2 VSS_esc2 nmos l=0.14u w=0.35u m=1
.ends inv01

*
* Component pathname : $GDKGATES/mux21
*
.subckt mux21  Y A0 A1 S0 VDD_esc1 VSS_esc2

        MN4 N$11 A1 N$3 VSS_esc2 nmos l=0.14u w=0.77u m=1
        M1 Y N$11 VDD_esc1 VDD_esc1 pmos l=0.14u w=1.54u m=1
        MN5 N$3 S0 VSS_esc2 VSS_esc2 nmos l=0.14u w=0.77u m=1
        M2 Y N$11 VSS_esc2 VSS_esc2 nmos l=0.14u w=0.77u m=1
        MP5 N$11 A1 N$2 VDD_esc1 pmos l=0.14u w=1.54u m=1
        MP4 N$2 N$231 VDD_esc1 VDD_esc1 pmos l=0.14u w=1.54u m=1
        MN3 N$1 N$231 VSS_esc2 VSS_esc2 nmos l=0.14u w=0.77u m=1
        MN2 N$11 A0 N$1 VSS_esc2 nmos l=0.14u w=0.77u m=1
        MP2 N$7 S0 VDD_esc1 VDD_esc1 pmos l=0.14u w=1.54u m=1
        MN1 N$231 S0 VSS_esc2 VSS_esc2 nmos l=0.14u w=0.35u m=1
        MP1 N$231 S0 VDD_esc1 VDD_esc1 pmos l=0.14u w=0.77u m=1
        MP3 N$11 A0 N$7 VDD_esc1 pmos l=0.14u w=1.54u m=1
.ends mux21

*
* Component pathname : $GDKGATES/and03
*
.subckt and03  Y A0 A1 A2 VDD_esc1 VSS_esc2

        MP3 A A2 VDD_esc1 VDD_esc1 pmos l=0.14u w=1.4u m=1
        MN2 A A0 N$214 VSS_esc2 nmos l=0.14u w=1.19u m=1
        MN1 N$215 A2 VSS_esc2 VSS_esc2 nmos l=0.14u w=1.19u m=1
        MN3 N$214 A1 N$215 VSS_esc2 nmos l=0.14u w=1.19u m=1
        MN4 Y A VSS_esc2 VSS_esc2 nmos l=0.14u w=0.35u m=1
        MP2 A A1 VDD_esc1 VDD_esc1 pmos l=0.14u w=1.4u m=1
        MP1 A A0 VDD_esc1 VDD_esc1 pmos l=0.14u w=1.4u m=1
        MP4 Y A VDD_esc1 VDD_esc1 pmos l=0.14u w=0.77u m=1
.ends and03

*
* Component pathname : $GDKGATES/and02
*
.subckt and02  Y A0 A1 VDD_esc1 VSS_esc2

        MN3 Y N$1 VSS_esc2 VSS_esc2 nmos l=0.14u w=0.35u m=1
        MN2 N$6 A1 VSS_esc2 VSS_esc2 nmos l=0.14u w=0.77u m=1
        MN1 N$1 A0 N$6 VSS_esc2 nmos l=0.14u w=0.77u m=1
        MP3 Y N$1 VDD_esc1 VDD_esc1 pmos l=0.14u w=0.77u m=1
        MP2 N$1 A1 VDD_esc1 VDD_esc1 pmos l=0.14u w=1.05u m=1
        MP1 N$1 A0 VDD_esc1 VDD_esc1 pmos l=0.14u w=1.05u m=1
.ends and02

*
* Component pathname : $GDKGATES/nand02
*
.subckt nand02  Y A0 A1 VDD_esc1 VSS_esc2

        MP1 Y A0 VDD_esc1 VDD_esc1 pmos l=0.14u w=1.05u m=1
        MN1 Y A0 N$5 VSS_esc2 nmos l=0.14u w=0.77u m=1
        MN2 N$5 A1 VSS_esc2 VSS_esc2 nmos l=0.14u w=0.77u m=1
        MP2 Y A1 VDD_esc1 VDD_esc1 pmos l=0.14u w=1.05u m=1
.ends nand02

*
* Component pathname : $GDKGATES/inv02
*
.subckt inv02  Y A VDD_esc1 VSS_esc2

        MP1 Y A VDD_esc1 VDD_esc1 pmos l=0.14u w=1.54u m=1
        MN1 Y A VSS_esc2 VSS_esc2 nmos l=0.14u w=0.77u m=1
.ends inv02

*
* Component pathname : $GDKGATES/nor03
*
.subckt nor03  Y A0 A1 A2 VDD_esc1 VSS_esc2

        MP3 Y A2 N$3 VDD_esc1 pmos l=0.14u w=1.68u m=1
        MN2 Y A1 VSS_esc2 VSS_esc2 nmos l=0.14u w=0.42u m=1
        MN1 Y A2 VSS_esc2 VSS_esc2 nmos l=0.14u w=0.42u m=1
        MP2 N$3 A1 N$1 VDD_esc1 pmos l=0.14u w=1.68u m=1
        MP1 N$1 A0 VDD_esc1 VDD_esc1 pmos l=0.14u w=1.68u m=1
        MN3 Y A0 VSS_esc2 VSS_esc2 nmos l=0.14u w=0.42u m=1
.ends nor03

*
* Component pathname : $GDKGATES/ao32
*
.subckt ao32  Y A0 A1 A2 B0 B1 VDD_esc1 VSS_esc2

        MP6 Y N$12 VDD_esc1 VDD_esc1 pmos l=0.14u w=0.77u m=1
        MN6 Y N$12 VSS_esc2 VSS_esc2 nmos l=0.14u w=0.35u m=1
        MN5 N$5 B1 VSS_esc2 VSS_esc2 nmos l=0.14u w=0.77u m=1
        MN4 N$12 B0 N$5 VSS_esc2 nmos l=0.14u w=0.77u m=1
        MN3 N$4 A2 VSS_esc2 VSS_esc2 nmos l=0.14u w=1.19u m=1
        MN2 N$3 A1 N$4 VSS_esc2 nmos l=0.14u w=1.19u m=1
        MN1 N$12 A0 N$3 VSS_esc2 nmos l=0.14u w=1.19u m=1
        MP5 N$12 B0 N$10 VDD_esc1 pmos l=0.14u w=1.19u m=1
        MP4 N$12 B1 N$10 VDD_esc1 pmos l=0.14u w=1.19u m=1
        MP3 N$10 A0 VDD_esc1 VDD_esc1 pmos l=0.14u w=1.19u m=1
        MP2 N$10 A1 VDD_esc1 VDD_esc1 pmos l=0.14u w=1.19u m=1
        MP1 N$10 A2 VDD_esc1 VDD_esc1 pmos l=0.14u w=1.19u m=1
.ends ao32

*
* Component pathname : $GDKGATES/aoi22
*
.subckt aoi22  Y A0 A1 B0 B1 VDD_esc1 VSS_esc2

        M_I$13 Y B1 N$6 VDD_esc1 pmos l=0.14u w=1.19u m=1
        M_I$12 N$1 A1 VSS_esc2 VSS_esc2 nmos l=0.14u w=0.77u m=1
        M_I$11 Y A0 N$1 VSS_esc2 nmos l=0.14u w=0.77u m=1
        M_I$14 Y B0 N$2 VSS_esc2 nmos l=0.14u w=0.77u m=1
        M_I$7 Y B0 N$6 VDD_esc1 pmos l=0.14u w=1.19u m=1
        M_I$6 N$6 A1 VDD_esc1 VDD_esc1 pmos l=0.14u w=1.19u m=1
        M_I$5 N$6 A0 VDD_esc1 VDD_esc1 pmos l=0.14u w=1.19u m=1
        M_I$4 N$2 B1 VSS_esc2 VSS_esc2 nmos l=0.14u w=0.77u m=1
.ends aoi22

*
* Component pathname : $GDKGATES/aoi32
*
.subckt aoi32  Y A0 A1 A2 B0 B1 VDD_esc1 VSS_esc2

        MN4 Y B0 N$6 VSS_esc2 nmos l=0.14u w=0.77u m=1
        MN3 N$5 A2 VSS_esc2 VSS_esc2 nmos l=0.14u w=1.19u m=1
        MN2 N$4 A1 N$5 VSS_esc2 nmos l=0.14u w=1.19u m=1
        MN1 Y A0 N$4 VSS_esc2 nmos l=0.14u w=1.19u m=1
        MP5 Y B0 N$11 VDD_esc1 pmos l=0.14u w=1.19u m=1
        MP4 Y B1 N$11 VDD_esc1 pmos l=0.14u w=1.19u m=1
        MP3 N$11 A0 VDD_esc1 VDD_esc1 pmos l=0.14u w=1.19u m=1
        MP2 N$11 A1 VDD_esc1 VDD_esc1 pmos l=0.14u w=1.19u m=1
        MP1 N$11 A2 VDD_esc1 VDD_esc1 pmos l=0.14u w=1.19u m=1
        MN5 N$6 B1 VSS_esc2 VSS_esc2 nmos l=0.14u w=0.77u m=1
.ends aoi32

*
* Component pathname : $GDKGATES/nand03
*
.subckt nand03  Y A0 A1 A2 VDD_esc1 VSS_esc2

        MP3 Y A2 VDD_esc1 VDD_esc1 pmos l=0.14u w=1.26u m=1
        MN2 Y A0 N$4 VSS_esc2 nmos l=0.14u w=1.19u m=1
        MN1 N$5 A2 VSS_esc2 VSS_esc2 nmos l=0.14u w=1.19u m=1
        MN3 N$4 A1 N$5 VSS_esc2 nmos l=0.14u w=1.19u m=1
        MP2 Y A1 VDD_esc1 VDD_esc1 pmos l=0.14u w=1.26u m=1
        MP1 Y A0 VDD_esc1 VDD_esc1 pmos l=0.14u w=1.26u m=1
.ends nand03

*
* Component pathname : $GDKGATES/xor2
*
.subckt xor2  Y A0 A1 VDD_esc1 VSS_esc2

        MN5 N$6 A1 VSS_esc2 VSS_esc2 nmos l=0.14u w=0.77u m=1
        MN4 N$7 A0 N$6 VSS_esc2 nmos l=0.14u w=0.77u m=1
        MP4 N$7 A1 VDD_esc1 VDD_esc1 pmos l=0.14u w=1.19u m=1
        MP3 N$7 A0 VDD_esc1 VDD_esc1 pmos l=0.14u w=1.19u m=1
        MP1 Y N$4 VDD_esc1 VDD_esc1 pmos l=0.14u w=0.77u m=1
        MN3 N$3 N$7 VSS_esc2 VSS_esc2 nmos l=0.14u w=0.77u m=1
        MN2 N$4 A1 N$3 VSS_esc2 nmos l=0.14u w=0.77u m=1
        MN1 N$4 A0 N$3 VSS_esc2 nmos l=0.14u w=0.77u m=1
        MP6 N$4 A1 N$1 VDD_esc1 pmos l=0.14u w=2.24u m=1
        MP2 N$4 N$7 VDD_esc1 VDD_esc1 pmos l=0.14u w=1.19u m=1
        MP5 N$1 A0 VDD_esc1 VDD_esc1 pmos l=0.14u w=2.24u m=1
        MN6 Y N$4 VSS_esc2 VSS_esc2 nmos l=0.14u w=0.35u m=1
.ends xor2

*
* Component pathname : $GDKGATES/nor02ii
*
.subckt nor02ii  Y A0 A1 VDD_esc1 VSS_esc2

        MN1 N$4 A1 VSS_esc2 VSS_esc2 nmos l=0.14u w=0.35u m=1
        MP1 N$4 A1 VDD_esc1 VDD_esc1 pmos l=0.14u w=0.77u m=1
        MN4 Y A0 VSS_esc2 VSS_esc2 nmos l=0.14u w=0.35u m=1
        MN2 Y N$4 VSS_esc2 VSS_esc2 nmos l=0.14u w=0.35u m=1
        MP4 Y N$4 N$1 VDD_esc1 pmos l=0.14u w=1.19u m=1
        MP2 N$1 A0 VDD_esc1 VDD_esc1 pmos l=0.14u w=1.19u m=1
.ends nor02ii

*
* Component pathname : $GDKGATES/aoi21
*
.subckt aoi21  Y A0 A1 B0 VDD_esc1 VSS_esc2

        M_I$11 Y A0 N$2 VSS_esc2 nmos l=0.14u w=0.77u m=1
        M_I$7 Y B0 N$1 VDD_esc1 pmos l=0.14u w=1.19u m=1
        M_I$6 N$1 A1 VDD_esc1 VDD_esc1 pmos l=0.14u w=1.19u m=1
        M_I$5 N$1 A0 VDD_esc1 VDD_esc1 pmos l=0.14u w=1.19u m=1
        M_I$4 Y B0 VSS_esc2 VSS_esc2 nmos l=0.14u w=0.35u m=1
        M_I$12 N$2 A1 VSS_esc2 VSS_esc2 nmos l=0.14u w=0.77u m=1
.ends aoi21

*
* Component pathname : $PYXIS_SPT/digicdesign/Multiplier
*
.subckt Multiplier  Product[31] Product[30] Product[29] Product[28] Product[27]
+ Product[26] Product[25] Product[24] Product[23] Product[22] Product[21]
+ Product[20] Product[19] Product[18] Product[17] Product[16] Product[15]
+ Product[14] Product[13] Product[12] Product[11] Product[10] Product[9]
+ Product[8] Product[7] Product[6] Product[5] Product[4] Product[3] Product[2]
+ Product[1] Product[0] A[15] A[14] A[13] A[12] A[11] A[10] A[9] A[8] A[7]
+ A[6] A[5] A[4] A[3] A[2] A[1] A[0] B[15] B[14] B[13] B[12] B[11] B[10]
+ B[9] B[8] B[7] B[6] B[5] B[4] B[3] B[2] B[1] B[0]

        X_ix2197 nx2196 nx2443 nx2093 nx3324 nx3318 nx3320 VDD VSS oai32
        X_ix2637 nx2636 nx2443 nx2703 nx3632 nx3626 nx3628 VDD VSS oai32
        X_ix2721 nx2720 nx2575 nx2933 nx3698 nx3692 nx3694 VDD VSS oai32
        X_ix2749 nx2748 nx2575 nx2930 nx3720 nx3729 nx3716 VDD VSS oai32
        X_ix2689 nx2688 nx2443 nx2933 nx3673 nx3701 nx3669 VDD VSS oai32
        X_ix2697 nx2696 nx2321 nx2930 nx3681 nx3675 nx3677 VDD VSS oai32
        X_ix2513 nx2512 nx2209 nx2703 nx3551 nx3544 nx3547 VDD VSS oai32
        X_ix2505 nx2504 nx2321 nx2561 nx3542 nx3535 nx3538 VDD VSS oai32
        X_ix2581 nx2580 nx2321 nx2703 nx3596 nx3635 nx3592 VDD VSS oai32
        X_ix2673 nx2672 nx1581 nx2561 nx3657 nx3650 nx3653 VDD VSS oai32
        X_ix2629 nx2628 nx2575 nx2561 nx3624 nx3660 nx3620 VDD VSS oai32
        X_ix2497 nx2496 nx2443 nx2429 nx3533 nx3526 nx3529 VDD VSS oai32
        X_ix2489 nx2488 nx2575 nx2307 nx3524 nx3518 nx3520 VDD VSS oai32
        X_ix2565 nx2564 nx2575 nx2429 nx3584 nx3618 nx3580 VDD VSS oai32
        X_ix2159 nx2158 nx3336 nx2156 VDD VSS xnor2
        X_ix2157 nx2156 nx3339 nx2154 VDD VSS xnor2
        X_ix3325 nx3324 nx2080 nx2162 VDD VSS xnor2
        X_ix2163 nx2162 nx3330 nx2160 VDD VSS xnor2
        X_ix2161 nx2160 nx3333 nx2158 VDD VSS xnor2
        X_ix3633 nx3632 nx2580 nx2602 VDD VSS xnor2
        X_ix2603 nx2602 nx3638 nx2600 VDD VSS xnor2
        X_ix2599 nx2598 nx3644 nx2596 VDD VSS xnor2
        X_ix2601 nx2600 nx3641 nx2598 VDD VSS xnor2
        X_ix3321 nx3320 nx3322 nx3324 VDD VSS xnor2
        X_ix3317 nx3316 nx3318 nx3320 VDD VSS xnor2
        X_ix3629 nx3628 nx3630 nx3632 VDD VSS xnor2
        X_ix3625 nx3624 nx3626 nx3628 VDD VSS xnor2
        X_ix3695 nx3694 nx3696 nx3698 VDD VSS xnor2
        X_ix3691 nx3690 nx3692 nx3694 VDD VSS xnor2
        X_ix2735 nx2734 nx3712 nx2732 VDD VSS xnor2
        X_ix2733 nx2732 nx2720 nx3716 VDD VSS xnor2
        X_ix3717 nx3716 nx3718 nx3720 VDD VSS xnor2
        X_ix3670 nx3669 nx3671 nx3673 VDD VSS xnor2
        X_ix2661 nx2660 nx2636 nx3669 VDD VSS xnor2
        X_ix3699 nx3698 nx2688 nx2698 VDD VSS xnor2
        X_ix2699 nx2698 nx3704 nx2696 VDD VSS xnor2
        X_ix3678 nx3677 nx3679 nx3681 VDD VSS xnor2
        X_ix3674 nx3673 nx3675 nx3677 VDD VSS xnor2
        X_ix3597 nx3596 nx2512 nx2534 VDD VSS xnor2
        X_ix2535 nx2534 nx3600 nx2532 VDD VSS xnor2
        X_ix3548 nx3547 nx3549 nx3551 VDD VSS xnor2
        X_ix3543 nx3542 nx3544 nx3547 VDD VSS xnor2
        X_ix3539 nx3538 nx3540 nx3542 VDD VSS xnor2
        X_ix3534 nx3533 nx3535 nx3538 VDD VSS xnor2
        X_ix3593 nx3592 nx3594 nx3596 VDD VSS xnor2
        X_ix2541 nx2540 nx2504 nx3592 VDD VSS xnor2
        X_ix3658 nx3657 nx2628 nx2662 VDD VSS xnor2
        X_ix2663 nx2662 nx3665 nx2660 VDD VSS xnor2
        X_ix3654 nx3653 nx3655 nx3657 VDD VSS xnor2
        X_ix2615 nx2614 nx3614 nx2612 VDD VSS xnor2
        X_ix2613 nx2612 nx2564 nx3620 VDD VSS xnor2
        X_ix3621 nx3620 nx3622 nx3624 VDD VSS xnor2
        X_ix3585 nx3584 nx2496 nx2542 VDD VSS xnor2
        X_ix2543 nx2542 nx3588 nx2540 VDD VSS xnor2
        X_ix3530 nx3529 nx3531 nx3533 VDD VSS xnor2
        X_ix3525 nx3524 nx3526 nx3529 VDD VSS xnor2
        X_ix3521 nx3520 nx3522 nx3524 VDD VSS xnor2
        X_ix3517 nx3516 nx3518 nx3520 VDD VSS xnor2
        X_ix2551 nx2550 nx3576 nx2548 VDD VSS xnor2
        X_ix2549 nx2548 nx2488 nx3580 VDD VSS xnor2
        X_ix3581 nx3580 nx3582 nx3584 VDD VSS xnor2
        X_ix2097 nx2096 nx3339 VDD VSS inv01
        X_ix2089 nx2088 nx3333 VDD VSS inv01
        X_ix2589 nx2588 nx3641 VDD VSS inv01
        X_ix3730 nx3729 nx2720 VDD VSS inv01
        X_ix3702 nx3701 nx2636 VDD VSS inv01
        X_ix3636 nx3635 nx2504 VDD VSS inv01
        X_ix3661 nx3660 nx2564 VDD VSS inv01
        X_ix3619 nx3618 nx2488 VDD VSS inv01
        X_ix1985 nx1984 nx1861 nx2561 nx3199 nx3192 nx3195 VDD VSS oai32
        X_ix1977 nx1976 nx1933 nx2429 nx3190 nx3184 nx3186 VDD VSS oai32
        X_ix2121 nx2120 nx1861 nx2703 nx3286 nx3366 nx3282 VDD VSS oai32
        X_ix2237 nx2236 nx1933 nx2703 nx3363 nx3357 nx3359 VDD VSS oai32
        X_ix3394 nx3393 nx2196 nx2278 VDD VSS xnor2
        X_ix2279 nx2278 nx3397 nx2276 VDD VSS xnor2
        X_ix2277 nx2276 nx3400 nx2274 VDD VSS xnor2
        X_ix2275 nx2274 nx3403 nx2272 VDD VSS xnor2
        X_ix2273 nx2272 nx3406 nx2270 VDD VSS xnor2
        X_ix2271 nx2270 nx3410 nx2268 VDD VSS xnor2
        X_ix2269 nx2268 nx3413 nx2266 VDD VSS xnor2
        X_ix3430 nx3429 nx2236 nx2258 VDD VSS xnor2
        X_ix2259 nx2258 nx3433 nx2256 VDD VSS xnor2
        X_ix2255 nx2254 nx3439 nx2252 VDD VSS xnor2
        X_ix2257 nx2256 nx3436 nx2254 VDD VSS xnor2
        X_ix2155 nx2154 nx3343 nx2152 VDD VSS xnor2
        X_ix2153 nx2152 nx2104 nx3351 VDD VSS xnor2
        X_ix3352 nx3351 nx3353 nx3355 VDD VSS xnor2
        X_ix2267 nx2266 nx3417 nx2264 VDD VSS xnor2
        X_ix2265 nx2264 nx2228 nx3425 VDD VSS xnor2
        X_ix3426 nx3425 nx3427 nx3429 VDD VSS xnor2
        X_ix3191 nx3190 nx3192 nx3195 VDD VSS xnor2
        X_ix3275 nx3274 nx1976 nx2022 VDD VSS xnor2
        X_ix2023 nx2022 nx3278 nx2020 VDD VSS xnor2
        X_ix3187 nx3186 nx3188 nx3190 VDD VSS xnor2
        X_ix3183 nx3182 nx3184 nx3186 VDD VSS xnor2
        X_ix3283 nx3282 nx3284 nx3286 VDD VSS xnor2
        X_ix2021 nx2020 nx1984 nx3282 VDD VSS xnor2
        X_ix3364 nx3363 nx2120 nx2142 VDD VSS xnor2
        X_ix2143 nx2142 nx3369 nx2140 VDD VSS xnor2
        X_ix3360 nx3359 nx3361 nx3363 VDD VSS xnor2
        X_ix3356 nx3355 nx3357 nx3359 VDD VSS xnor2
        X_ix2205 nx2204 nx3400 VDD VSS inv01
        X_ix2213 nx2212 nx3406 VDD VSS inv01
        X_ix2221 nx2220 nx3413 VDD VSS inv01
        X_ix2245 nx2244 nx3436 VDD VSS inv01
        X_ix3422 nx3421 nx2104 VDD VSS inv01
        X_ix3492 nx3491 nx2228 VDD VSS inv01
        X_ix2564 nx2563 nx882 VDD VSS inv01
        X_ix1027 nx1026 nx2549 VDD VSS inv01
        X_ix2706 nx2705 nx1034 VDD VSS inv01
        X_ix3367 nx3366 nx1984 VDD VSS inv01
        X_ix2229 nx2228 nx2015 nx2561 nx3355 nx3421 nx3351 VDD VSS oai32
        X_ix2341 nx2340 nx2015 nx2703 nx3429 nx3491 nx3425 VDD VSS oai32
        X_ix1035 nx1034 nx1687 nx2561 nx2441 nx2563 nx2437 VDD VSS oai32
        X_ix1199 nx1198 nx1687 nx2703 nx2573 nx2705 nx2569 VDD VSS oai32
        X_ix893 nx892 nx2423 nx890 VDD VSS xnor2
        X_ix891 nx890 nx882 nx2437 VDD VSS xnor2
        X_ix2438 nx2437 nx2439 nx2441 VDD VSS xnor2
        X_ix1049 nx1048 nx2545 nx1046 VDD VSS xnor2
        X_ix1047 nx1046 nx2549 nx1044 VDD VSS xnor2
        X_ix1045 nx1044 nx2555 nx1042 VDD VSS xnor2
        X_ix1043 nx1042 nx1034 nx2569 VDD VSS xnor2
        X_ix2570 nx2569 nx2571 nx2573 VDD VSS xnor2
        X_ix3200 nx3199 nx1844 nx1878 VDD VSS xnor2
        X_ix1879 nx1878 nx3207 nx1876 VDD VSS xnor2
        X_ix3196 nx3195 nx3197 nx3199 VDD VSS xnor2
        X_ix1495 nx1494 nx2015 nx2001 nx2857 nx2849 nx2853 VDD VSS oai32
        X_ix1487 nx1486 nx2107 nx1919 nx2847 nx2839 nx2843 VDD VSS oai32
        X_ix1653 nx1652 nx2107 nx2001 nx2976 nx3064 nx2972 VDD VSS oai32
        X_ix1479 nx1478 nx2209 nx1847 nx2837 nx2829 nx2833 VDD VSS oai32
        X_ix1471 nx1470 nx2321 nx1785 nx2827 nx2819 nx2823 VDD VSS oai32
        X_ix1637 nx1636 nx2321 nx1847 nx2964 nx3051 nx2960 VDD VSS oai32
        X_ix1813 nx1812 nx2107 nx2093 nx3070 nx3169 nx3066 VDD VSS oai32
        X_ix1953 nx1952 nx2209 nx2093 nx3166 nx3159 nx3162 VDD VSS oai32
        X_ix1945 nx1944 nx2321 nx2001 nx3157 nx3151 nx3153 VDD VSS oai32
        X_ix2081 nx2080 nx2321 nx2093 nx3254 nx3327 nx3250 VDD VSS oai32
        X_ix3075 nx3074 nx3076 nx3078 VDD VSS xnor2
        X_ix3071 nx3070 nx3072 nx3074 VDD VSS xnor2
        X_ix3179 nx3178 nx3180 nx3182 VDD VSS xnor2
        X_ix1893 nx1892 nx1820 nx3178 VDD VSS xnor2
        X_ix3255 nx3254 nx1952 nx2034 VDD VSS xnor2
        X_ix2035 nx2034 nx3258 nx2032 VDD VSS xnor2
        X_ix2033 nx2032 nx3261 nx2030 VDD VSS xnor2
        X_ix2031 nx2030 nx3264 nx2028 VDD VSS xnor2
        X_ix2029 nx2028 nx1968 nx3270 VDD VSS xnor2
        X_ix3271 nx3270 nx3272 nx3274 VDD VSS xnor2
        X_ix2977 nx2976 nx1494 nx1582 VDD VSS xnor2
        X_ix1583 nx1582 nx2980 nx1580 VDD VSS xnor2
        X_ix2854 nx2853 nx2855 nx2857 VDD VSS xnor2
        X_ix2848 nx2847 nx2849 nx2853 VDD VSS xnor2
        X_ix2844 nx2843 nx2845 nx2847 VDD VSS xnor2
        X_ix2838 nx2837 nx2839 nx2843 VDD VSS xnor2
        X_ix2824 nx2823 nx2825 nx2827 VDD VSS xnor2
        X_ix2818 nx2817 nx2819 nx2823 VDD VSS xnor2
        X_ix2961 nx2960 nx2962 nx2964 VDD VSS xnor2
        X_ix1597 nx1596 nx1470 nx2960 VDD VSS xnor2
        X_ix3049 nx3048 nx1636 nx1754 VDD VSS xnor2
        X_ix1755 nx1754 nx3054 nx1752 VDD VSS xnor2
        X_ix1753 nx1752 nx3057 nx1750 VDD VSS xnor2
        X_ix1751 nx1750 nx3060 nx1748 VDD VSS xnor2
        X_ix1749 nx1748 nx1652 nx3066 VDD VSS xnor2
        X_ix3067 nx3066 nx3068 nx3070 VDD VSS xnor2
        X_ix3167 nx3166 nx1812 nx1894 VDD VSS xnor2
        X_ix1895 nx1894 nx3174 nx1892 VDD VSS xnor2
        X_ix3163 nx3162 nx3164 nx3166 VDD VSS xnor2
        X_ix3158 nx3157 nx3159 nx3162 VDD VSS xnor2
        X_ix3154 nx3153 nx3155 nx3157 VDD VSS xnor2
        X_ix3150 nx3149 nx3151 nx3153 VDD VSS xnor2
        X_ix3251 nx3250 nx3252 nx3254 VDD VSS xnor2
        X_ix2041 nx2040 nx1944 nx3250 VDD VSS xnor2
        X_ix3269 nx3268 nx1820 VDD VSS inv01
        X_ix1961 nx1960 nx3261 VDD VSS inv01
        X_ix3348 nx3347 nx1968 VDD VSS inv01
        X_ix3065 nx3064 nx1486 VDD VSS inv01
        X_ix3052 nx3051 nx1470 VDD VSS inv01
        X_ix1645 nx1644 nx3057 VDD VSS inv01
        X_ix3170 nx3169 nx1652 VDD VSS inv01
        X_ix3328 nx3327 nx1944 VDD VSS inv01
        X_ix1821 nx1820 nx2015 nx2195 nx3078 nx3072 nx3074 VDD VSS oai32
        X_ix1969 nx1968 nx2015 nx2307 nx3182 nx3268 nx3178 VDD VSS oai32
        X_ix2105 nx2104 nx2015 nx2429 nx3274 nx3347 nx3270 VDD VSS oai32
        X_ix2973 nx2972 nx2974 nx2976 VDD VSS xnor2
        X_ix1589 nx1588 nx1486 nx2972 VDD VSS xnor2
        X_ix2965 nx2964 nx1478 nx1590 VDD VSS xnor2
        X_ix1591 nx1590 nx2968 nx1588 VDD VSS xnor2
        X_ix2834 nx2833 nx2835 nx2837 VDD VSS xnor2
        X_ix2828 nx2827 nx2829 nx2833 VDD VSS xnor2
        X_ix1227 nx1226 nx2651 nx1224 VDD VSS xnor2
        X_ix1225 nx1224 nx2657 nx1222 VDD VSS xnor2
        X_ix1223 nx1222 nx2661 nx1220 VDD VSS xnor2
        X_ix1221 nx1220 nx2667 nx1218 VDD VSS xnor2
        X_ix1219 nx1218 nx2671 nx1216 VDD VSS xnor2
        X_ix1217 nx1216 nx2677 nx1214 VDD VSS xnor2
        X_ix1215 nx1214 nx2681 nx1212 VDD VSS xnor2
        X_ix1213 nx1212 nx2687 nx1210 VDD VSS xnor2
        X_ix1211 nx1210 nx2691 nx1208 VDD VSS xnor2
        X_ix1209 nx1208 nx2697 nx1206 VDD VSS xnor2
        X_ix1207 nx1206 nx1198 nx2711 VDD VSS xnor2
        X_ix2712 nx2711 nx2713 nx2715 VDD VSS xnor2
        X_ix2922 nx2921 nx2923 nx2925 VDD VSS xnor2
        X_ix2917 nx2916 nx2918 nx2921 VDD VSS xnor2
        X_ix3021 nx3020 nx3022 nx3024 VDD VSS xnor2
        X_ix1557 nx1556 nx1550 nx3020 VDD VSS xnor2
        X_ix1103 nx1102 nx2583 VDD VSS inv01
        X_ix1111 nx1110 nx2591 VDD VSS inv01
        X_ix1119 nx1118 nx2601 VDD VSS inv01
        X_ix1127 nx1126 nx2611 VDD VSS inv01
        X_ix1135 nx1134 nx2621 VDD VSS inv01
        X_ix1143 nx1142 nx2631 VDD VSS inv01
        X_ix1151 nx1150 nx2641 VDD VSS inv01
        X_ix1159 nx1158 nx2651 VDD VSS inv01
        X_ix1167 nx1166 nx2661 VDD VSS inv01
        X_ix1175 nx1174 nx2671 VDD VSS inv01
        X_ix1183 nx1182 nx2681 VDD VSS inv01
        X_ix1191 nx1190 nx2691 VDD VSS inv01
        X_ix2936 nx2935 nx1198 VDD VSS inv01
        X_ix3124 nx3123 nx1550 VDD VSS inv01
        X_ix2926 nx2925 nx2927 nx1376 nx1374 VDD VSS mux21
        X_ix1229 nx1228 nx2647 nx1226 VDD VSS xnor2
        X_ix1551 nx1550 nx1651 nx2933 nx2925 nx2918 nx2921 VDD VSS oai32
        X_ix1375 nx1374 nx1687 nx2933 nx2715 nx2935 nx2711 VDD VSS oai32
        X_ix1717 nx1716 nx1651 nx2930 nx3024 nx3123 nx3020 VDD VSS oai32
        X_ix1257 nx1256 nx2579 nx1254 VDD VSS xnor2
        X_ix1255 nx1254 nx2583 nx1252 VDD VSS xnor2
        X_ix1253 nx1252 nx2587 nx1250 VDD VSS xnor2
        X_ix1251 nx1250 nx2591 nx1248 VDD VSS xnor2
        X_ix1249 nx1248 nx2597 nx1246 VDD VSS xnor2
        X_ix1247 nx1246 nx2601 nx1244 VDD VSS xnor2
        X_ix1245 nx1244 nx2607 nx1242 VDD VSS xnor2
        X_ix1243 nx1242 nx2611 nx1240 VDD VSS xnor2
        X_ix1241 nx1240 nx2617 nx1238 VDD VSS xnor2
        X_ix1239 nx1238 nx2621 nx1236 VDD VSS xnor2
        X_ix1237 nx1236 nx2627 nx1234 VDD VSS xnor2
        X_ix1235 nx1234 nx2631 nx1232 VDD VSS xnor2
        X_ix1233 nx1232 nx2637 nx1230 VDD VSS xnor2
        X_ix1231 nx1230 nx2641 nx1228 VDD VSS xnor2
        X_ix2009 nx2008 nx1705 nx2930 nx3223 nx3217 nx3219 VDD VSS oai32
        X_ix2129 nx2128 nx1799 nx2933 nx3294 nx3288 nx3290 VDD VSS oai32
        X_ix2253 nx2252 nx1799 nx2930 nx3377 nx3442 nx3373 VDD VSS oai32
        X_ix1853 nx1852 nx1747 nx2703 nx3108 nx3102 nx3104 VDD VSS oai32
        X_ix2001 nx2000 nx1747 nx2933 nx3215 nx3297 nx3211 VDD VSS oai32
        X_ix3212 nx3211 nx3213 nx3215 VDD VSS xnor2
        X_ix1877 nx1876 nx1852 nx3211 VDD VSS xnor2
        X_ix3013 nx3012 nx1542 nx1558 VDD VSS xnor2
        X_ix1559 nx1558 nx3016 nx1556 VDD VSS xnor2
        X_ix2913 nx2912 nx2914 nx2916 VDD VSS xnor2
        X_ix2908 nx2907 nx2909 nx2912 VDD VSS xnor2
        X_ix2904 nx2903 nx2905 nx2907 VDD VSS xnor2
        X_ix2898 nx2897 nx2899 nx2903 VDD VSS xnor2
        X_ix3443 nx3442 nx2128 VDD VSS inv01
        X_ix1709 nx1708 nx3117 VDD VSS inv01
        X_ix3298 nx3297 nx1852 VDD VSS inv01
        X_ix3112 nx3111 nx1534 VDD VSS inv01
        X_ix3082 nx3081 nx1502 VDD VSS inv01
        X_ix1677 nx1676 nx3087 VDD VSS inv01
        X_ix3203 nx3202 nx1684 VDD VSS inv01
        X_ix3095 nx3094 nx1518 VDD VSS inv01
        X_ix1543 nx1542 nx1669 nx2703 nx2916 nx2909 nx2912 VDD VSS oai32
        X_ix1535 nx1534 nx1705 nx2561 nx2907 nx2899 nx2903 VDD VSS oai32
        X_ix1701 nx1700 nx1705 nx2703 nx3012 nx3111 nx3008 VDD VSS oai32
        X_ix1511 nx1510 nx1861 nx2195 nx2877 nx2869 nx2873 VDD VSS oai32
        X_ix1503 nx1502 nx1933 nx2093 nx2867 nx2859 nx2863 VDD VSS oai32
        X_ix1669 nx1668 nx1933 nx2195 nx2988 nx3081 nx2984 VDD VSS oai32
        X_ix1845 nx1844 nx1799 nx2561 nx3100 nx3202 nx3096 VDD VSS oai32
        X_ix1529 nx1563 nx1747 nx2429 nx2897 nx2889 nx2893 VDD VSS oai32
        X_ix1519 nx1518 nx1799 nx2307 nx2887 nx2879 nx2883 VDD VSS oai32
        X_ix1685 nx1684 nx1799 nx2429 nx3000 nx3094 nx2996 VDD VSS oai32
        X_ix3295 nx3294 nx2000 nx2010 VDD VSS xnor2
        X_ix2011 nx2010 nx3300 nx2008 VDD VSS xnor2
        X_ix3220 nx3219 nx3221 nx3223 VDD VSS xnor2
        X_ix3216 nx3215 nx3217 nx3219 VDD VSS xnor2
        X_ix3291 nx3290 nx3292 nx3294 VDD VSS xnor2
        X_ix3287 nx3286 nx3288 nx3290 VDD VSS xnor2
        X_ix3374 nx3373 nx3375 nx3377 VDD VSS xnor2
        X_ix2141 nx2140 nx2128 nx3373 VDD VSS xnor2
        X_ix3109 nx3108 nx1700 nx1722 VDD VSS xnor2
        X_ix1723 nx1722 nx3114 nx1720 VDD VSS xnor2
        X_ix1719 nx1718 nx3120 nx1716 VDD VSS xnor2
        X_ix1721 nx1720 nx3117 nx1718 VDD VSS xnor2
        X_ix3105 nx3104 nx3106 nx3108 VDD VSS xnor2
        X_ix3101 nx3100 nx3102 nx3104 VDD VSS xnor2
        X_ix3009 nx3008 nx3010 nx3012 VDD VSS xnor2
        X_ix1565 nx1564 nx1534 nx3008 VDD VSS xnor2
        X_ix2989 nx2988 nx1510 nx1574 VDD VSS xnor2
        X_ix1575 nx1574 nx2992 nx1572 VDD VSS xnor2
        X_ix2874 nx2873 nx2875 nx2877 VDD VSS xnor2
        X_ix2868 nx2867 nx2869 nx2873 VDD VSS xnor2
        X_ix2864 nx2863 nx2865 nx2867 VDD VSS xnor2
        X_ix2858 nx2857 nx2859 nx2863 VDD VSS xnor2
        X_ix2985 nx2984 nx2986 nx2988 VDD VSS xnor2
        X_ix1581 nx1580 nx1502 nx2984 VDD VSS xnor2
        X_ix3079 nx3078 nx1668 nx1738 VDD VSS xnor2
        X_ix1739 nx1738 nx3084 nx1736 VDD VSS xnor2
        X_ix1737 nx1736 nx3087 nx1734 VDD VSS xnor2
        X_ix1735 nx1734 nx3090 nx1732 VDD VSS xnor2
        X_ix1733 nx1732 nx1684 nx3096 VDD VSS xnor2
        X_ix3097 nx3096 nx3098 nx3100 VDD VSS xnor2
        X_ix3001 nx3000 nx1563 nx1566 VDD VSS xnor2
        X_ix1567 nx1566 nx3004 nx1564 VDD VSS xnor2
        X_ix2894 nx2893 nx2895 nx2897 VDD VSS xnor2
        X_ix2888 nx2887 nx2889 nx2893 VDD VSS xnor2
        X_ix2884 nx2883 nx2885 nx2887 VDD VSS xnor2
        X_ix2878 nx2877 nx2879 nx2883 VDD VSS xnor2
        X_ix2997 nx2996 nx2998 nx3000 VDD VSS xnor2
        X_ix1573 nx1572 nx1518 nx2996 VDD VSS xnor2
        X_ix177 nx176 nx1751 nx174 VDD VSS xnor2
        X_ix175 nx174 nx1755 nx172 VDD VSS xnor2
        X_ix173 nx172 nx1759 nx170 VDD VSS xnor2
        X_ix171 nx170 nx1763 nx168 VDD VSS xnor2
        X_ix117 nx116 nx1709 nx114 VDD VSS xnor2
        X_ix115 nx114 nx1713 nx112 VDD VSS xnor2
        X_ix113 nx112 nx1717 nx110 VDD VSS xnor2
        X_ix111 nx110 nx1721 nx108 VDD VSS xnor2
        X_ix109 nx108 nx1727 nx106 VDD VSS xnor2
        X_ix107 nx106 nx98 nx1741 VDD VSS xnor2
        X_ix1742 nx1741 nx1743 nx1745 VDD VSS xnor2
        X_ix169 nx168 nx1769 nx166 VDD VSS xnor2
        X_ix167 nx166 nx1773 nx164 VDD VSS xnor2
        X_ix165 nx164 nx1779 nx162 VDD VSS xnor2
        X_ix163 nx162 nx154 nx1793 VDD VSS xnor2
        X_ix1794 nx1793 nx1795 nx1797 VDD VSS xnor2
        X_ix33 nx32 nx1655 nx30 VDD VSS xnor2
        X_ix31 nx30 nx22 nx1663 VDD VSS xnor2
        X_ix1664 nx1663 nx1665 nx1667 VDD VSS xnor2
        X_ix2804 nx2803 nx2805 nx2807 VDD VSS xnor2
        X_ix2800 nx2799 nx2801 nx2803 VDD VSS xnor2
        X_ix1607 nx1606 nx2944 nx1604 VDD VSS xnor2
        X_ix1605 nx1604 nx1454 nx2948 VDD VSS xnor2
        X_ix2949 nx2948 nx2950 nx2952 VDD VSS xnor2
        X_ix131 nx130 nx1755 VDD VSS inv01
        X_ix139 nx138 nx1763 VDD VSS inv01
        X_ix83 nx82 nx1713 VDD VSS inv01
        X_ix91 nx90 nx1721 VDD VSS inv01
        X_ix1788 nx1787 nx98 VDD VSS inv01
        X_ix147 nx146 nx1773 VDD VSS inv01
        X_ix1850 nx1849 nx154 VDD VSS inv01
        X_ix1692 nx1691 nx22 VDD VSS inv01
        X_ix47 nx46 nx1677 VDD VSS inv01
        X_ix1736 nx1735 nx54 VDD VSS inv01
        X_ix3137 nx3136 nx1620 VDD VSS inv01
        X_ix3747 nx3748 nx2799 VDD VSS inv01
        X_ix3749 nx3750 nx2795 VDD VSS inv01
        X_ix3035 nx3034 nx1454 VDD VSS inv01
        X_ix155 nx154 nx1687 nx1785 nx1745 nx1787 nx1741 VDD VSS oai32
        X_ix223 nx222 nx1687 nx1847 nx1797 nx1849 nx1793 VDD VSS oai32
        X_ix55 nx54 nx1687 nx1689 nx1667 nx1691 nx1663 VDD VSS oai32
        X_ix99 nx98 nx1687 nx1733 nx1703 nx1735 nx1699 VDD VSS oai32
        X_ix1781 nx1780 nx2575 nx1785 nx3040 nx3136 nx3036 VDD VSS oai32
        X_ix1463 nx1462 nx2443 nx1733 nx2817 nx2809 nx2813 VDD VSS oai32
        X_ix1455 nx1454 nx2575 nx1689 nx2807 nx2801 nx2803 VDD VSS oai32
        X_ix1621 nx1620 nx2575 nx1733 nx2952 nx3034 nx2948 VDD VSS oai32
        X_ix69 nx68 nx1673 nx66 VDD VSS xnor2
        X_ix67 nx66 nx1677 nx64 VDD VSS xnor2
        X_ix65 nx64 nx1681 nx62 VDD VSS xnor2
        X_ix63 nx62 nx54 nx1699 VDD VSS xnor2
        X_ix1700 nx1699 nx1701 nx1703 VDD VSS xnor2
        X_ix1767 nx1766 nx3030 nx1764 VDD VSS xnor2
        X_ix1765 nx1764 nx1620 nx3036 VDD VSS xnor2
        X_ix3037 nx3036 nx3038 nx3040 VDD VSS xnor2
        X_ix2953 nx2952 nx1462 nx1598 VDD VSS xnor2
        X_ix1599 nx1598 nx2956 nx1596 VDD VSS xnor2
        X_ix2814 nx2813 nx2815 nx2817 VDD VSS xnor2
        X_ix2808 nx2807 nx2809 nx2813 VDD VSS xnor2
        X_ix2796 nx2795 nx2797 nx2799 VDD VSS xnor2
        X_ix933 nx932 nx2325 nx930 VDD VSS xnor2
        X_ix931 nx930 nx2329 nx928 VDD VSS xnor2
        X_ix929 nx928 nx2333 nx926 VDD VSS xnor2
        X_ix927 nx926 nx2337 nx924 VDD VSS xnor2
        X_ix925 nx924 nx2343 nx922 VDD VSS xnor2
        X_ix923 nx922 nx2347 nx920 VDD VSS xnor2
        X_ix921 nx920 nx2353 nx918 VDD VSS xnor2
        X_ix919 nx918 nx2357 nx916 VDD VSS xnor2
        X_ix901 nx900 nx2403 nx898 VDD VSS xnor2
        X_ix899 nx898 nx2407 nx896 VDD VSS xnor2
        X_ix897 nx896 nx2413 nx894 VDD VSS xnor2
        X_ix895 nx894 nx2417 nx892 VDD VSS xnor2
        X_ix917 nx916 nx2363 nx914 VDD VSS xnor2
        X_ix915 nx914 nx2367 nx912 VDD VSS xnor2
        X_ix913 nx912 nx2373 nx910 VDD VSS xnor2