* File: ALU_1Bit.pex.netlist.pex
* Created: Sat Nov  9 15:04:36 2019
* Program "Calibre xRC"
* Version "v2013.4_26.18"
* Nominal Temperature: 27C
* Circuit Temperature: 27C
* 
.subckt PM_ALU_1BIT_X_IX5.A 4 9 14 17 18
c0 62 0 0.277112f
c1 60 0 0.598815f
c2 52 0 0.02121f
c3 50 0 0.439428f
c4 48 0 0.03729f
c5 47 0 0.0829818f
c6 46 0 0.0576504f
c7 43 0 0.091856f
c8 42 0 0.050318f
c9 38 0 0.206452f
c10 36 0 0.03192f
c11 34 0 0.230847f
c12 33 0 0.04011f
c13 32 0 0.167355f
c14 29 0 0.206452f
c15 27 0 0.078788f
c16 26 0 0.053098f
c17 22 0 0.218983f
c18 20 0 0.033712f
c19 19 0 0.14595f
c20 12 0 0.0639786f
c21 2 0 0.173477f
r22 50 54 0.0251623
r23 49 50 0.882
r24 47 49 0.0446983
r25 47 48 0.106
r26 46 48 0.0446983
r27 45 46 0.126
r28 44 52 0.0338756
r29 43 54 0.0195706
r30 43 44 0.186667
r31 41 52 0.00880368
r32 41 42 0.106667
r33 36 42 0.0425897
r34 36 38 0.12
r35 35 51 0.00985986
r36 34 45 0.0446983
r37 34 35 0.42
r38 32 52 0.0338756
r39 32 33 0.346667
r40 27 51 0.0872805
r41 27 29 0.12
r42 25 33 0.0446983
r43 25 26 0.106667
r44 20 26 0.0425897
r45 20 22 0.12
r46 19 62 8.81074
r47 19 60 8.81074
r48 19 54 11.07
r49 19 38 5.17667
r50 19 29 5.20333
r51 19 22 5.17667
r52 18 19 1.098
r53 17 19 1.098
r54 14 19 1.18235
r55 10 12 10
r56 9 62 40
r57 5 12 0.587288
r58 5 60 187.5
r59 2 10 0.587288
r60 2 4 22.5
.ends

.subckt PM_ALU_1BIT_NX0 6 10 15 17
c0 49 0 0.191064f
c1 48 0 0.112f
c2 33 0 0.880437f
c3 31 0 0.187878f
c4 28 0 0.114332f
c5 25 0 0.03801f
c6 24 0 0.089063f
c7 22 0 0.15014f
c8 21 0 0.278378f
c9 20 0 0.09275f
c10 19 0 0.06144f
c11 18 0 0.21549f
c12 13 0 0.0667416f
c13 8 0 0.367058f
c14 6 0 0.832114f
r15 41 54 0.0786207
r16 32 33 2.484
r17 26 28 0.1
r18 24 26 0.0458951
r19 24 25 0.0933333
r20 22 41 0.046225
r21 22 31 0.39619
r22 21 25 0.0446983
r23 20 31 0.08
r24 20 21 0.586667
r25 19 45 0.16161
r26 19 54 15.61
r27 19 33 0.0477743
r28 19 41 0.68
r29 19 28 7.765
r30 18 51 8.91972
r31 18 49 8.91972
r32 18 48 11.07
r33 18 32 0.0477743
r34 18 48 0.68
r35 17 45 1.83475
r36 15 19 4.02
r37 11 13 10
r38 8 13 0.587288
r39 8 10 52.5
r40 6 51 190
r41 2 11 0.587288
r42 2 49 60
.ends

.subckt PM_ALU_1BIT_VSS 1 6 35 77 78 79 80 81 82 83 84 302
c0 429 0 0.09568f
c1 424 0 0.06496f
c2 419 0 0.0696f
c3 306 0 0.09936f
c4 305 0 0.0784f
c5 300 0 0.062016f
c6 299 0 0.828253f
c7 296 0 9.01348f
c8 292 0 1.46427f
c9 288 0 1.85367f
c10 283 0 9.01876f
c11 280 0 0.0685212f
c12 279 0 0.030856f
c13 278 0 0.05068f
c14 276 0 0.042f
c15 274 0 0.064206f
c16 273 0 0.02912f
c17 272 0 0.042f
c18 270 0 0.064206f
c19 268 0 0.07784f
c20 266 0 0.0777f
c21 264 0 0.064206f
c22 262 0 0.07784f
c23 260 0 0.0777f
c24 259 0 0.042f
c25 258 0 0.0777f
c26 257 0 2.2755f
c27 256 0 0.064206f
c28 255 0 0.02912f
c29 254 0 0.33437f
c30 252 0 0.064206f
c31 250 0 0.07784f
c32 244 0 0.134424f
c33 242 0 0.030856f
c34 241 0 0.0907812f
c35 239 0 0.062988f
c36 238 0 0.03192f
c37 235 0 0.127492f
c38 233 0 0.03192f
c39 232 0 0.072004f
c40 226 0 0.45034f
c41 221 0 0.127492f
c42 219 0 0.02912f
c43 218 0 0.08634f
c44 216 0 0.13042f
c45 215 0 0.253514f
c46 214 0 0.1237f
c47 213 0 0.085888f
c48 208 0 0.967388f
c49 201 0 0.19274f
c50 195 0 0.813522f
c51 194 0 0.062988f
c52 193 0 0.03192f
c53 190 0 0.127492f
c54 188 0 0.03192f
c55 187 0 0.032524f
c56 184 0 0.379738f
c57 179 0 0.172612f
c58 177 0 0.02912f
c59 172 0 0.45349f
c60 169 0 0.032524f
c61 160 0 12.6514f
c62 56 0 0.064206f
c63 54 0 0.07784f
c64 52 0 0.02912f
c65 22 0 0.064206f
c66 20 0 0.07784f
c67 18 0 0.02912f
r68 424 429 0.68
r69 419 424 0.68
r70 413 419 0.68
r71 391 394 0.514171
r72 306 429 0.189414
r73 305 306 0.189414
r74 300 302 0.0302152
r75 299 305 0.0367111
r76 299 300 1.997
r77 296 398 0.88176
r78 283 385 0.88176
r79 279 280 0.114286
r80 277 292 0.542286
r81 277 278 0.0149881
r82 275 288 0.737143
r83 275 276 0.0149881
r84 273 274 0.114286
r85 268 270 0.0414583
r86 262 264 0.0414583
r87 257 356 0.036
r88 257 258 0.0132241
r89 252 255 0.114286
r90 250 252 0.0414583
r91 242 280 0.0414583
r92 242 244 0.12
r93 241 279 0.0414583
r94 240 278 0.0313149
r95 240 241 0.13
r96 238 239 0.133333
r97 233 239 0.0425897
r98 233 235 0.12
r99 232 238 0.0425897
r100 231 276 0.0313149
r101 231 232 0.11
r102 227 272 0.0149881
r103 227 229 0.056
r104 226 278 0.0149881
r105 226 229 0.168
r106 219 274 0.0414583
r107 219 221 0.12
r108 218 273 0.0414583
r109 217 272 0.0313149
r110 217 218 0.13
r111 215 272 0.0149881
r112 215 216 0.124
r113 213 216 0.0681926
r114 213 214 0.245
r115 209 266 0.0132241
r116 209 211 0.424
r117 208 276 0.0149881
r118 208 211 0.056
r119 206 266 0.0346762
r120 206 270 0.114286
r121 202 260 0.0132241
r122 202 204 0.072
r123 201 266 0.0132241
r124 201 204 0.024
r125 199 260 0.0346762
r126 199 264 0.114286
r127 196 259 0.0149881
r128 196 197 0.244
r129 195 214 0.0681926
r130 193 194 0.133333
r131 188 194 0.0425897
r132 188 190 0.12
r133 187 193 0.0425897
r134 186 259 0.0313149
r135 186 187 0.05
r136 185 258 0.0132241
r137 184 260 0.0132241
r138 184 185 0.188
r139 182 258 0.0346762
r140 182 256 0.114286
r141 177 256 0.0414583
r142 177 179 0.12
r143 173 254 0.0149881
r144 173 175 0.156
r145 172 259 0.0149881
r146 172 175 0.064
r147 169 255 0.0414583
r148 168 254 0.0313149
r149 168 169 0.05
r150 165 197 0.0403178
r151 164 394 0.0403178
r152 161 413 0.4962
r153 161 398 0.0755556
r154 161 296 0.0755556
r155 160 385 0.0755556
r156 160 283 0.0755556
r157 54 56 0.0414583
r158 52 56 0.114286
r159 50 195 0.072
r160 50 197 0.032
r161 47 52 0.0414583
r162 47 165 0.19
r163 39 63 5.95556
r164 20 22 0.0414583
r165 18 22 0.114286
r166 16 356 0.308
r167 16 394 0.032
r168 13 18 0.0414583
r169 13 164 0.19
r170 6 413 0.3224
r171 6 160 0.17396
r172 6 391 0.226667
r173 6 356 2.21857
r174 6 326 0.295844
r175 6 323 0.558333
r176 6 320 0.295844
r177 6 317 0.558333
r178 6 335 0.744444
r179 6 332 0.744444
r180 6 329 0.744444
r181 6 335 1.96261
r182 6 81 1.79438
r183 6 332 1.95774
r184 6 80 1.79925
r185 6 329 1.96261
r186 6 77 1.79438
r187 6 326 2.36874
r188 6 84 1.57369
r189 6 323 2.19641
r190 6 83 1.64731
r191 6 320 2.36874
r192 6 82 1.57369
r193 6 317 2.19641
r194 6 79 1.64731
r195 6 78 0.244801
r196 6 161 0.482
r197 6 292 0.226667
r198 6 160 0.17396
r199 6 288 0.226667
r200 6 268 15.61
r201 6 262 15.61
r202 6 250 15.61
r203 6 244 7.805
r204 6 235 7.805
r205 6 229 1.72556
r206 6 221 7.805
r207 6 211 1.94125
r208 6 204 3.8825
r209 6 190 7.805
r210 6 179 7.805
r211 6 175 1.553
r212 6 63 1.4216
r213 6 39 1.95774
r214 6 35 1.79925
r215 6 54 15.61
r216 6 50 5.17667
r217 6 29 1.4216
r218 6 20 15.61
r219 6 16 5.17667
r220 5 6 1.95774
r221 5 29 5.95556
r222 1 6 1.79925
.ends

.subckt PM_ALU_1BIT_X_IX1.N$4 4 8 10 12
c0 42 0 0.075658f
c1 40 0 0.127492f
c2 38 0 0.06818f
c3 30 0 0.364372f
c4 28 0 0.03192f
c5 25 0 0.069323f
c6 24 0 0.03192f
c7 20 0 0.229462f
c8 19 0 0.03801f
c9 18 0 0.18126f
c10 17 0 0.272708f
c11 15 0 0.18438f
c12 8 0 0.317012f
c13 4 0 0.700612f
r14 37 38 0.0351795
r15 34 37 0.03
r16 28 42 0.0451795
r17 28 30 0.24
r18 26 42 0.16
r19 24 40 0.0451795
r20 24 25 0.146667
r21 20 26 0.0446983
r22 20 38 0.4
r23 18 25 0.0446983
r24 18 19 0.293333
r25 17 37 0.0158951
r26 16 19 0.0446983
r27 16 17 0.573333
r28 15 48 3.87454
r29 15 40 7.805
r30 15 34 11.07
r31 15 30 3.106
r32 12 15 1.43348
r33 10 15 1.82727
r34 6 48 3.77626
r35 6 8 52.5
r36 2 15 11.6236
r37 2 4 187.5
.ends

.subckt PM_ALU_1BIT_VDD 1 5 37 41 84 127 128 129 130 131 132 133 134 135 136 137
+ 377
c0 502 0 0.09568f
c1 497 0 0.06496f
c2 492 0 0.0696f
c3 477 0 0.82512f
c4 473 0 7.28548f
c5 461 0 7.29076f
c6 378 0 1.06518f
c7 377 0 0.062016f
c8 374 0 0.09936f
c9 371 0 0.0784f
c10 351 0 0.020825f
c11 349 0 0.042f
c12 347 0 0.0577485f
c13 346 0 0.32317f
c14 345 0 0.0577485f
c15 344 0 0.02912f
c16 342 0 0.04242f
c17 340 0 0.0513994f
c18 339 0 0.029204f
c19 338 0 0.042f
c20 335 0 0.03815f
c21 334 0 0.029792f
c22 333 0 0.042f
c23 332 0 0.064206f
c24 331 0 0.029512f
c25 330 0 0.0917f
c26 329 0 0.03136f
c27 328 0 0.042f
c28 327 0 0.0777f
c29 326 0 0.02912f
c30 325 0 0.02912f
c31 324 0 0.042f
c32 323 0 1.39897f
c33 322 0 0.064206f
c34 321 0 0.0805f
c35 320 0 1.29833f
c36 317 0 0.226192f
c37 312 0 0.275984f
c38 311 0 0.02912f
c39 306 0 0.144384f
c40 305 0 0.02912f
c41 302 0 0.364372f
c42 298 0 0.298814f
c43 297 0 0.0866118f
c44 296 0 0.029204f
c45 291 0 0.365463f
c46 287 0 0.20079f
c47 285 0 0.328898f
c48 283 0 0.275984f
c49 273 0 0.508384f
c50 272 0 0.0975395f
c51 268 0 0.454079f
c52 265 0 0.1237f
c53 264 0 0.08809f
c54 263 0 0.1237f
c55 262 0 0.172128f
c56 258 0 0.867562f
c57 253 0 0.26519f
c58 252 0 0.032524f
c59 251 0 0.02912f
c60 246 0 0.209193f
c61 243 0 0.069078f
c62 239 0 0.222116f
c63 235 0 0.211934f
c64 234 0 0.062988f
c65 233 0 0.03192f
c66 232 0 0.032524f
c67 231 0 0.03192f
c68 228 0 0.206452f
c69 224 0 0.38594f
c70 223 0 0.064206f
c71 219 0 0.206452f
c72 212 0 0.30544f
c73 207 0 0.364372f
c74 204 0 0.032524f
c75 203 0 0.02912f
c76 198 0 0.20394f
c77 197 0 0.062988f
c78 196 0 0.03192f
c79 193 0 0.206452f
c80 190 0 0.13984f
c81 189 0 0.13984f
c82 185 0 10.3506f
c83 60 0 0.064206f
c84 59 0 0.02912f
c85 57 0 0.127492f
c86 52 0 0.02912f
c87 24 0 0.06699f
c88 23 0 0.030632f
c89 21 0 0.133529f
c90 16 0 0.030632f
r91 497 502 0.68
r92 492 497 0.68
r93 484 492 0.68
r94 386 457 0.961707
r95 377 378 0.0302152
r96 374 502 0.189414
r97 373 374 0.189414
r98 371 373 0.0366371
r99 371 378 2.573
r100 367 473 0.68976
r101 359 466 0.239886
r102 354 461 0.68976
r103 350 351 0.0114583
r104 348 477 0.281714
r105 348 349 0.0149881
r106 347 351 0.102857
r107 344 345 0.102857
r108 339 340 0.0914286
r109 331 332 0.114286
r110 323 363 0.566743
r111 323 324 0.0149881
r112 322 325 0.114286
r113 320 321 0.0114292
r114 317 350 0.15
r115 312 349 0.0313149
r116 311 347 0.0414583
r117 311 312 0.42
r118 306 346 0.0313149
r119 305 345 0.0414583
r120 305 306 0.22
r121 300 344 0.0414583
r122 300 302 0.24
r123 299 342 0.0149881
r124 298 349 0.0149881
r125 298 299 0.148
r126 297 342 0.0313149
r127 296 340 0.0414583
r128 296 297 0.13
r129 289 339 0.0414583
r130 289 291 0.24
r131 288 338 0.0149881
r132 287 342 0.0149881
r133 287 288 0.1
r134 283 338 0.0313149
r135 283 285 0.42
r136 274 335 0.0132241
r137 274 276 0.14
r138 273 346 0.0149881
r139 273 276 0.108
r140 272 335 0.0346762
r141 272 334 0.171429
r142 266 334 0.0414583
r143 266 268 0.24
r144 264 335 0.0132241
r145 264 265 0.044
r146 262 265 0.0681926
r147 262 263 0.49
r148 259 333 0.0149881
r149 259 260 0.136
r150 258 338 0.0149881
r151 254 330 0.0132241
r152 254 256 0.056
r153 253 263 0.0681926
r154 253 256 0.076
r155 252 333 0.0313149
r156 251 332 0.0414583
r157 251 252 0.05
r158 244 331 0.0414583
r159 244 246 0.12
r160 243 330 0.0346762
r161 243 329 0.114286
r162 237 329 0.0414583
r163 237 239 0.12
r164 236 328 0.0149881
r165 235 333 0.0149881
r166 235 236 0.1
r167 233 234 0.133333
r168 232 328 0.0313149
r169 231 234 0.0425897
r170 231 232 0.05
r171 226 233 0.0425897
r172 226 228 0.12
r173 225 327 0.0132241
r174 224 330 0.0132241
r175 224 225 0.192
r176 223 327 0.0346762
r177 223 326 0.114286
r178 217 326 0.0414583
r179 217 219 0.12
r180 213 324 0.0149881
r181 213 215 0.12
r182 212 328 0.0149881
r183 212 215 0.032
r184 205 325 0.0414583
r185 205 207 0.24
r186 204 324 0.0313149
r187 203 322 0.0414583
r188 203 204 0.05
r189 199 321 0.0114292
r190 199 201 0.048
r191 198 327 0.0132241
r192 198 201 0.048
r193 197 321 0.0385677
r194 196 197 0.133333
r195 191 196 0.0425897
r196 191 193 0.12
r197 190 260 0.0403178
r198 189 466 0.0403178
r199 186 473 0.0755556
r200 186 367 0.0755556
r201 185 484 0.40016
r202 185 461 0.0755556
r203 185 354 0.0755556
r204 156 386 2.86824
r205 156 157 3.96435
r206 152 183 3.9141
r207 143 167 3.84639
r208 140 161 3.84639
r209 135 157 0.161834
r210 134 152 5.23458
r211 133 384 0.517494
r212 129 143 4.13139
r213 128 140 4.13139
r214 84 451 3.67162
r215 84 183 3.64838
r216 59 60 0.114286
r217 57 59 0.0414583
r218 54 258 0.262286
r219 54 260 0.032
r220 52 60 0.0414583
r221 52 190 0.25
r222 41 42 4.30725
r223 37 186 0.078
r224 37 484 0.3224
r225 37 477 0.226667
r226 37 451 3.01716
r227 37 137 1.18104
r228 37 457 1.22
r229 37 131 1.45447
r230 37 130 1.50154
r231 37 161 8.65091
r232 37 84 7.56143
r233 37 186 0.078
r234 37 363 0.226667
r235 37 342 1.561
r236 37 317 5.17667
r237 37 291 3.106
r238 37 285 2.58833
r239 37 246 5.17667
r240 37 228 5.17667
r241 37 215 1.561
r242 37 207 3.106
r243 37 70 5.69333
r244 37 70 3.59088
r245 37 42 0.323221
r246 37 57 7.765
r247 37 54 5.20333
r248 23 24 0.114286
r249 21 23 0.0414583
r250 18 320 0.228
r251 18 466 0.032
r252 16 24 0.0414583
r253 16 189 0.25
r254 5 6 4.30725
r255 1 136 0.692335
r256 1 384 0.0455824
r257 1 132 1.45993
r258 1 167 0.665455
r259 1 127 1.42055
r260 1 37 0.3366
r261 1 185 0.38596
r262 1 359 0.226667
r263 1 302 3.106
r264 1 276 1.95125
r265 1 268 2.58833
r266 1 256 3.9025
r267 1 239 5.17667
r268 1 219 5.17667
r269 1 201 2.23
r270 1 193 5.17667
r271 1 34 5.69333
r272 1 34 3.59088
r273 1 6 0.323221
r274 1 21 7.765
r275 1 18 5.20333
.ends

.subckt PM_ALU_1BIT_CB 1 3 19
c0 64 0 0.100568f
c1 59 0 0.0976206f
c2 54 0 0.06496f
c3 49 0 0.0696f
c4 38 0 0.14125f
c5 23 0 0.0864f
c6 22 0 0.29727f
c7 19 0 2.38521f
c8 16 0 0.09065f
c9 15 0 0.195473f
c10 14 0 0.361993f
c11 7 0 0.127492f
c12 5 0 0.03192f
c13 4 0 0.07424f
r14 59 64 0.189414
r15 54 59 0.68
r16 49 54 0.68
r17 38 40 0.0189831
r18 30 38 0.0474576
r19 23 64 0.189414
r20 22 23 0.52
r21 17 22 0.0190514
r22 17 19 0.711364
r23 15 16 0.08
r24 14 16 0.76
r25 10 38 0.0178907
r26 10 15 0.409524
r27 5 14 0.0451795
r28 5 7 0.12
r29 4 49 0.68
r30 4 40 0.68
r31 4 30 15.61
r32 4 7 7.765
r33 3 4 1.82525
r34 1 4 3.67543
.ends

.subckt PM_ALU_1BIT_X_IX1.N$7 4 8 10 12
c0 38 0 0.089425f
c1 33 0 0.02121f
c2 28 0 0.420268f
c3 25 0 0.114332f
c4 23 0 0.16859f
c5 22 0 0.240368f
c6 18 0 0.206452f
c7 16 0 0.03192f
c8 15 0 0.0728f
c9 14 0 0.088496f
c10 13 0 0.1365f
c11 8 0 0.748128f
c12 4 0 0.612272f
r13 27 38 0.0046983
r14 27 28 0.88
r15 25 38 0.106667
r16 24 33 0.0338756
r17 23 28 0.0446983
r18 23 24 0.266667
r19 21 33 0.00880368
r20 21 22 0.506667
r21 16 22 0.0425897
r22 16 18 0.12
r23 15 30 0.0451795
r24 14 33 0.0338756
r25 14 15 0.186667
r26 13 45 8.71929
r27 13 43 8.71929
r28 13 25 7.805
r29 13 30 11.07
r30 13 18 5.17667
r31 12 13 1.29176
r32 10 13 1.67065
r33 8 43 185
r34 4 45 130
.ends

.subckt PM_ALU_1BIT_NX85 4 8 20 22
c0 85 0 0.089628f
c1 70 0 0.0554405f
c2 63 0 0.0662483f
c3 62 0 0.0576f
c4 56 0 0.0576f
c5 55 0 0.265441f
c6 52 0 0.112009f
c7 49 0 0.0319181f
c8 46 0 0.26724f
c9 45 0 0.08155f
c10 44 0 0.33354f
c11 41 0 0.08144f
c12 38 0 0.324222f
c13 31 0 0.206452f
c14 29 0 0.03272f
c15 28 0 0.0368381f
c16 27 0 0.105943f
c17 26 0 0.119879f
c18 24 0 0.197998f
c19 23 0 0.07424f
c20 18 0 0.09576f
c21 15 0 0.0234861f
c22 11 0 0.0321832f
c23 10 0 0.0715303f
c24 8 0 0.652172f
c25 4 0 0.38551f
r26 62 63 0.68
r27 56 58 0.0477743
r28 55 62 0.0477743
r29 55 56 0.836
r30 49 63 0.0477743
r31 48 49 0.096
r32 45 47 0.0488569
r33 45 46 0.0602855
r34 44 47 0.742
r35 39 45 0.0349998
r36 38 85 0.0559551
r37 38 39 0.91
r38 34 46 0.592
r39 29 44 0.0466492
r40 29 31 0.12
r41 27 34 0.0446983
r42 27 28 0.156
r43 26 28 0.0446983
r44 25 41 0.0466492
r45 25 26 0.266
r46 24 72 8.71929
r47 24 70 8.71929
r48 24 52 11.07
r49 24 48 0.0477743
r50 24 52 0.68
r51 23 85 0.68
r52 23 58 0.68
r53 23 41 15.61
r54 23 31 5.17667
r55 22 23 1.18104
r56 20 23 4.02
r57 16 18 20
r58 15 18 0.587288
r59 15 72 7.5
r60 12 70 17.5
r61 10 12 5.58729
r62 10 11 12.5
r63 6 16 0.587288
r64 6 8 112.5
r65 2 11 5.58729
r66 2 4 72.5
.ends

.subckt PM_ALU_1BIT_Y 1 2 4 44
c0 91 0 0.100431f
c1 86 0 0.097481f
c2 81 0 0.06496f
c3 76 0 0.0696f
c4 65 0 0.075099f
c5 48 0 0.0864f
c6 47 0 0.294718f
c7 44 0 2.499f
c8 41 0 0.09065f
c9 40 0 0.021358f
c10 39 0 0.02121f
c11 37 0 0.127492f
c12 34 0 0.127492f
c13 32 0 0.152938f
c14 26 0 0.469652f
c15 24 0 0.03192f
c16 23 0 0.03801f
c17 22 0 0.06387f
c18 21 0 0.037648f
c19 19 0 0.037648f
c20 18 0 0.03192f
c21 15 0 0.0391776f
c22 14 0 0.166251f
c23 13 0 0.037648f
c24 12 0 0.03192f
c25 9 0 0.07424f
r26 86 91 0.189414
r27 81 86 0.68
r28 76 81 0.68
r29 65 67 0.0189189
r30 48 91 0.189414
r31 47 48 0.52
r32 42 47 0.0190514
r33 42 44 0.746818
r34 40 41 0.08
r35 32 41 0.32
r36 29 65 0.01802
r37 29 40 0.0457143
r38 24 32 0.0425897
r39 24 26 0.4
r40 22 65 0.0352408
r41 22 23 0.133333
r42 21 23 0.0446983
r43 20 39 0.0338756
r44 20 21 0.08
r45 19 39 0.0338756
r46 18 37 0.0451795
r47 18 19 0.08
r48 14 39 0.00880368
r49 14 15 0.346667
r50 13 15 0.0446983
r51 12 34 0.0451795
r52 12 13 0.08
r53 9 76 0.68
r54 9 67 0.68
r55 9 50 0.147922
r56 9 37 7.805
r57 9 34 7.805
r58 9 26 2.58833
r59 4 9 1.27982
r60 2 9 1.82727
r61 1 50 1.67935
.ends

.subckt PM_ALU_1BIT_X_IX84.N$9 4 8 14 16
c0 41 0 0.295724f
c1 39 0 0.07448f
c2 37 0 0.022281f
c3 36 0 0.255363f
c4 34 0 0.127492f
c5 26 0 0.206452f
c6 24 0 0.03192f
c7 23 0 0.0389235f
c8 22 0 0.143857f
c9 21 0 0.120003f
c10 20 0 0.03192f
c11 17 0 0.146254f
c12 13 0 0.0455407f
c13 12 0 0.208917f
c14 8 0 0.376694f
c15 4 0 0.380852f
r16 39 41 0.0451795
r17 32 37 0.0338756
r18 32 41 0.605714
r19 29 37 0.00880368
r20 29 36 0.533333
r21 24 36 0.0451795
r22 24 26 0.12
r23 22 37 0.0338756
r24 22 23 0.287619
r25 21 23 0.0446983
r26 20 34 0.0451795
r27 20 21 0.253333
r28 17 43 0.147922
r29 17 48 8.81074
r30 17 46 8.81074
r31 17 39 11.07
r32 17 34 7.805
r33 17 26 5.17667
r34 16 17 1.29176
r35 14 43 1.67935
r36 12 13 11.2903
r37 12 48 65
r38 8 46 70
r39 4 13 57.5
.ends

.subckt PM_ALU_1BIT_NX83 4 7 16 18
c0 75 0 0.159772f
c1 64 0 0.08841f
c2 61 0 1.02469f
c3 59 0 0.09065f
c4 58 0 0.113118f
c5 57 0 0.050318f
c6 52 0 0.0992f
c7 49 0 0.127492f
c8 47 0 0.050318f
c9 44 0 0.06761f
c10 43 0 0.03801f
c11 42 0 0.129073f
c12 37 0 0.364372f
c13 35 0 0.03192f
c14 33 0 0.122848f
c15 32 0 0.03801f
c16 31 0 0.173375f
c17 30 0 0.043983f
c18 29 0 0.03192f
c19 26 0 0.06144f
c20 25 0 0.19794f
c21 15 0 0.111264f
c22 11 0 0.034468f
c23 10 0 0.0930024f
c24 9 0 0.032067f
c25 8 0 0.111273f
c26 5 0 0.277112f
c27 2 0 0.564392f
r28 60 61 2.906
r29 58 59 0.08
r30 52 55 0.0217143
r31 47 59 0.106667
r32 44 69 0.0207296
r33 44 58 0.23619
r34 42 47 0.0446983
r35 42 43 0.190476
r36 40 43 0.0446983
r37 40 57 0.106667
r38 35 57 0.044532
r39 35 37 0.24
r40 34 55 0.0349998
r41 33 64 0.0559551
r42 33 34 0.35
r43 31 69 0.0239687
r44 31 32 0.36381
r45 30 32 0.0446983
r46 29 49 0.0451795
r47 29 30 0.0933333
r48 26 61 0.0477743
r49 26 69 0.68
r50 26 49 7.805
r51 26 37 3.106
r52 25 77 8.71929
r53 25 75 8.71929
r54 25 60 0.0477743
r55 25 64 0.68
r56 25 52 11.07
r57 20 26 0.273495
r58 20 21 4.52979
r59 18 21 0.190085
r60 16 26 1.82727
r61 15 77 35
r62 12 75 50
r63 10 12 5.58729
r64 10 11 17.5
r65 8 15 5.58729
r66 8 9 25
r67 5 11 5.58729
r68 5 7 40
r69 2 9 5.58729
r70 2 4 85
.ends

.subckt PM_ALU_1BIT_A 4 8 24 30 33 38 43 50 56 60 112
c0 157 0 0.0983368f
c1 152 0 0.06496f
c2 148 0 0.060964f
c3 125 0 0.11236f
c4 116 0 0.127224f
c5 110 0 0.1008f
c6 109 0 0.097216f
c7 107 0 0.0456f
c8 106 0 0.066748f
c9 99 0 0.066486f
c10 95 0 2.35753f
c11 94 0 0.0456f
c12 93 0 0.71427f
c13 92 0 0.0576f
c14 91 0 0.443872f
c15 80 0 0.0315974f
c16 78 0 1.07114f
c17 74 0 0.0728f
c18 72 0 0.0952f
c19 71 0 0.151846f
c20 70 0 0.20258f
c21 69 0 0.34724f
c22 65 0 0.412772f
c23 64 0 0.518384f
c24 63 0 0.0399f
c25 62 0 0.277749f
c26 60 0 0.400634f
c27 56 0 0.677406f
c28 53 0 0.05552f
c29 52 0 0.275193f
c30 50 0 0.427592f
c31 47 0 0.039444f
c32 45 0 0.03192f
c33 44 0 0.48344f
c34 43 0 0.593886f
c35 38 0 0.436712f
c36 24 0 0.923632f
c37 11 0 0.112f
c38 10 0 0.21684f
c39 8 0 0.636212f
c40 4 0 0.444692f
r41 152 157 0.68
r42 148 152 0.68
r43 110 157 0.189414
r44 109 112 0.0168776
r45 109 110 0.189414
r46 105 107 0.0477743
r47 105 106 0.68
r48 98 99 0.68
r49 95 148 0.0477743
r50 95 107 7.278
r51 94 102 0.0477743
r52 93 105 0.0477743
r53 93 94 2.254
r54 92 98 0.0477743
r55 91 102 0.0477743
r56 91 92 1.39
r57 79 106 0.0477743
r58 79 80 0.096
r59 78 99 0.0477743
r60 77 78 3.038
r61 72 115 0.0527007
r62 71 74 0.0451795
r63 71 72 0.32
r64 70 128 8.71929
r65 70 126 8.71929
r66 70 125 11.07
r67 70 80 0.0477743
r68 70 125 0.68
r69 69 115 0.68
r70 69 122 8.71929
r71 69 120 8.71929
r72 69 118 8.71929
r73 69 116 8.71929
r74 69 115 11.07
r75 69 102 0.68
r76 69 74 11.07
r77 66 67 11.2676
r78 64 65 8
r79 64 122 160
r80 63 116 40
r81 62 63 8
r82 58 60 77.5
r83 54 56 112.143
r84 53 67 4.92958
r85 52 54 5.58729
r86 52 53 75
r87 48 67 0.658076
r88 48 50 72.1429
r89 47 66 0.658076
r90 47 128 12.5
r91 44 58 5.58729
r92 44 45 140
r93 43 126 107.5
r94 40 45 5.58729
r95 40 43 77.5
r96 38 120 90
r97 33 65 55
r98 30 62 40
r99 24 118 187.5
r100 10 77 0.0477743
r101 10 11 0.68
r102 10 16 8.93992
r103 10 14 8.93992
r104 10 11 11.07
r105 8 16 152.5
r106 4 14 107.5
.ends

.subckt PM_ALU_1BIT_NX79 1 3 43 46
c0 76 0 0.1604f
c1 73 0 0.067414f
c2 72 0 0.0576f
c3 66 0 0.0576f
c4 65 0 0.776141f
c5 59 0 0.039244f
c6 56 0 0.226721f
c7 54 0 0.10109f
c8 52 0 0.08841f
c9 50 0 0.181865f
c10 48 0 0.201072f
c11 44 0 0.707424f
c12 41 0 0.277112f
c13 40 0 0.03192f
c14 39 0 0.136179f
c15 38 0 0.034468f
c16 37 0 0.0770424f
c17 36 0 0.140535f
c18 18 0 0.260278f
c19 14 0 0.08064f
c20 11 0 0.246703f
c21 7 0 0.127492f
c22 5 0 0.03192f
c23 4 0 0.07424f
r24 72 73 0.68
r25 66 68 0.0477743
r26 65 72 0.0477743
r27 65 66 2.422
r28 59 73 0.0477743
r29 58 59 0.11
r30 54 56 0.0638185
r31 52 62 0.0559551
r32 52 56 0.6375
r33 50 80 0.0458309
r34 48 78 8.71929
r35 48 76 8.71929
r36 48 58 0.0477743
r37 48 62 0.68
r38 48 54 11.07
r39 44 46 102.5
r40 41 43 40
r41 39 44 5.58729
r42 39 40 32.5
r43 37 41 5.58729
r44 37 38 12.5
r45 36 40 5.58729
r46 36 78 42.5
r47 33 38 5.58729
r48 33 76 50
r49 18 50 0.548571
r50 14 17 0.0451795
r51 11 80 0.138668
r52 11 17 0.52
r53 5 18 0.0451795
r54 5 7 0.12
r55 4 80 0.68
r56 4 68 0.68
r57 4 14 15.61
r58 4 7 7.765
r59 3 4 1.82525
r60 1 4 3.67543
.ends

.subckt PM_ALU_1BIT_CONTROL[1] 6 10 18 22 26 30 82
c0 142 0 0.1008f
c1 137 0 0.0983368f
c2 132 0 0.06496f
c3 102 0 0.382513f
c4 95 0 0.149852f
c5 90 0 0.130011f
c6 86 0 0.0864f
c7 85 0 0.298512f
c8 82 0 0.389803f
c9 77 0 0.0576f
c10 74 0 0.05125f
c11 70 0 0.06405f
c12 69 0 0.0576f
c13 62 0 0.066486f
c14 61 0 0.0576f
c15 59 0 0.0576f
c16 58 0 0.466533f
c17 57 0 0.0576f
c18 56 0 0.358987f
c19 55 0 0.060964f
c20 54 0 0.087424f
c21 51 0 0.112447f
c22 48 0 0.0144396f
c23 46 0 0.0217931f
c24 44 0 2.76415f
c25 42 0 0.07424f
c26 41 0 0.202348f
c27 40 0 0.19794f
c28 39 0 0.045094f
c29 38 0 0.13868f
c30 36 0 0.08778f
c31 32 0 0.0906367f
c32 30 0 0.868204f
c33 26 0 0.473029f
c34 22 0 0.508532f
c35 18 0 0.256592f
c36 15 0 0.207024f
c37 10 0 0.975754f
c38 6 0 0.448332f
r39 137 142 0.189414
r40 132 137 0.68
r41 128 132 0.68
r42 95 110 0.039886
r43 86 142 0.189414
r44 85 86 0.52
r45 80 85 0.0190305
r46 80 82 0.1
r47 73 74 0.68
r48 69 70 0.68
r49 61 62 0.68
r50 59 73 0.0477743
r51 58 77 0.0477743
r52 58 59 1.452
r53 57 65 0.0477743
r54 56 69 0.0477743
r55 56 57 1.13
r56 55 128 0.0477743
r57 54 61 0.0477743
r58 54 55 0.274
r59 47 74 0.0477743
r60 47 48 0.044
r61 46 74 0.0477743
r62 45 70 0.0477743
r63 45 46 0.066
r64 43 62 0.0474984
r65 43 44 7.872
r66 42 90 0.68
r67 42 90 11.07
r68 42 77 0.68
r69 41 104 8.71929
r70 41 102 8.71929
r71 41 51 11.07
r72 41 48 0.0477743
r73 41 51 0.68
r74 40 44 0.0477743
r75 40 110 0.68
r76 40 98 8.71929
r77 40 96 8.71929
r78 40 95 11.07
r79 40 65 0.68
r80 38 42 6
r81 38 39 1.34359
r82 34 36 17.5
r83 32 33 17.8832
r84 28 39 8.36466
r85 28 30 155
r86 24 39 8.36466
r87 24 26 100
r88 20 36 0.587288
r89 20 22 97.5
r90 16 33 0.478651
r91 16 18 48.5714
r92 15 34 0.587288
r93 15 104 65
r94 12 32 0.478651
r95 12 102 118.929
r96 10 98 235
r97 6 96 77.5
.ends

.subckt PM_ALU_1BIT_B 4 8 23 28 32 37 45 49 83
c0 138 0 0.100408f
c1 133 0 0.097157f
c2 128 0 0.06496f
c3 124 0 0.07622f
c4 107 0 0.112f
c5 89 0 0.3438f
c6 88 0 0.11221f
c7 84 0 2.65413f
c8 83 0 0.117432f
c9 80 0 0.0864f
c10 79 0 0.296637f
c11 71 0 0.0663104f
c12 68 0 0.0456f
c13 67 0 0.475249f
c14 66 0 0.0576f
c15 65 0 0.469864f
c16 59 0 1.03233f
c17 57 0 0.2951f
c18 55 0 0.19794f
c19 54 0 0.03388f
c20 52 0 0.0678154f
c21 49 0 0.829464f
c22 43 0 0.277112f
c23 42 0 0.18699f
c24 40 0 0.03192f
c25 39 0 0.26f
c26 37 0 0.723992f
c27 34 0 0.03192f
c28 33 0 0.207024f
c29 30 0 0.277112f
c30 28 0 0.687914f
c31 21 0 0.367042f
c32 11 0 0.112f
c33 10 0 0.22964f
c34 8 0 0.636212f
c35 4 0 0.445252f
r36 133 138 0.189414
r37 128 133 0.68
r38 124 128 0.68
r39 83 84 0.00815368
r40 80 138 0.189414
r41 79 80 0.52
r42 76 79 0.0190514
r43 76 84 0.813409
r44 70 71 0.68
r45 68 74 0.0477743
r46 67 124 0.0477743
r47 67 68 1.482
r48 66 70 0.0477743
r49 65 74 0.0477743
r50 65 66 1.474
r51 59 71 0.0477743
r52 58 59 2.986
r53 57 124 0.68
r54 57 107 0.68
r55 57 107 11.07
r56 55 91 8.71929
r57 55 89 8.71929
r58 55 88 11.07
r59 55 58 0.0477743
r60 55 88 0.68
r61 50 52 10
r62 47 49 127.5
r63 46 57 15.2893
r64 46 49 132.5
r65 43 54 4.23445
r66 43 45 40
r67 42 57 8.67769
r68 41 54 4.23445
r69 41 42 57.5
r70 39 47 5.58729
r71 39 40 70
r72 35 40 5.58729
r73 35 37 165
r74 33 54 1.10046
r75 33 34 65
r76 30 34 5.58729
r77 30 32 40
r78 28 91 145
r79 24 52 0.587288
r80 24 89 105
r81 21 50 0.587288
r82 21 23 52.5
r83 10 11 0.68
r84 10 74 0.68
r85 10 16 8.93992
r86 10 14 8.93992
r87 10 11 11.07
r88 8 16 152.5
r89 4 14 107.5
.ends

.subckt PM_ALU_1BIT_CONTROL[0] 8 12 19 23 31 34 91
c0 136 0 0.1008f
c1 131 0 0.0983368f
c2 126 0 0.06496f
c3 121 0 0.0696f
c4 117 0 0.066486f
c5 104 0 0.079344f
c6 100 0 0.454964f
c7 94 0 0.294948f
c8 88 0 0.0864f
c9 87 0 0.329832f
c10 84 0 0.095593f
c11 79 0 0.083381f
c12 69 0 0.174616f
c13 66 0 2.59616f
c14 64 0 0.773721f
c15 62 0 0.17892f
c16 53 0 0.120074f
c17 51 0 0.08841f
c18 50 0 0.0418299f
c19 49 0 0.074912f
c20 48 0 0.363994f
c21 47 0 0.326575f
c22 46 0 0.12288f
c23 45 0 0.202f
c24 44 0 0.1365f
c25 41 0 0.08778f
c26 37 0 0.056399f
c27 32 0 0.372872f
c28 29 0 0.181352f
c29 28 0 0.03192f
c30 27 0 0.087324f
c31 23 0 0.436712f
c32 19 0 0.759734f
c33 16 0 0.342684f
c34 10 0 0.277945f
c35 8 0 0.759734f
r36 131 136 0.189414
r37 126 131 0.68
r38 121 126 0.68
r39 117 121 0.68
r40 88 136 0.189414
r41 87 91 0.00895833
r42 87 88 0.52
r43 84 115 0.0595578
r44 69 99 0.0723926
r45 66 117 0.0477743
r46 65 66 7.424
r47 63 64 2.222
r48 61 62 0.512
r49 53 59 0.0223492
r50 53 115 0.146667
r51 51 74 0.0559551
r52 50 79 0.0559551
r53 50 51 0.1225
r54 49 55 0.0451795
r55 48 59 0.0223492
r56 48 49 0.76
r57 47 106 8.71929
r58 47 104 8.71929
r59 47 96 8.71929
r60 47 94 8.71929
r61 47 65 0.0477743
r62 47 64 0.0477743
r63 47 84 0.68
r64 47 59 5.535
r65 47 55 11.07
r66 46 63 0.0477743
r67 46 79 0.68
r68 46 62 0.0477743
r69 46 74 0.68
r70 45 102 8.71929
r71 45 100 8.71929
r72 45 99 11.07
r73 45 61 0.0477743
r74 45 69 0.68
r75 44 104 25
r76 43 44 10
r77 39 41 17.5
r78 35 37 7.5
r79 32 34 55
r80 29 41 0.587288
r81 29 31 25
r82 27 32 5.58729
r83 27 28 17.5
r84 23 43 90
r85 19 106 175
r86 16 28 5.58729
r87 16 102 107.5
r88 13 39 0.587288
r89 13 100 142.5
r90 10 37 0.587288
r91 10 12 40
r92 8 96 137.5
r93 4 35 0.587288
r94 4 94 90
.ends

.subckt PM_ALU_1BIT_NX81 1 3 41 45
c0 76 0 0.079344f
c1 70 0 0.08841f
c2 65 0 0.112357f
c3 62 0 1.155f
c4 60 0 0.09402f
c5 56 0 0.18281f
c6 54 0 0.247963f
c7 51 0 0.201884f
c8 49 0 0.08778f
c9 45 0 0.780101f
c10 41 0 0.360734f
c11 38 0 0.032151f
c12 37 0 0.0881666f
c13 36 0 0.0554439f
c14 18 0 0.322723f
c15 14 0 0.08064f
c16 7 0 0.127492f
c17 5 0 0.03192f
c18 4 0 0.065036f
r19 61 62 3.276
r20 58 60 0.0958185
r21 56 70 0.0559551
r22 56 60 0.5125
r23 55 58 0.024431
r24 54 58 0.024431
r25 51 78 8.71929
r26 51 76 8.71929
r27 51 65 11.07
r28 51 61 0.0477743
r29 51 65 0.68
r30 47 49 17.5
r31 43 45 127.5
r32 39 49 0.587288
r33 39 41 65
r34 37 43 5.58729
r35 37 38 17.5
r36 36 38 5.58729
r37 36 78 17.5
r38 33 47 0.587288
r39 33 76 25
r40 18 55 0.68
r41 17 54 0.52
r42 14 17 0.0451795
r43 5 18 0.0451795
r44 5 7 0.12
r45 4 62 0.0477743
r46 4 70 0.68
r47 4 14 15.61
r48 4 7 7.765
r49 3 4 1.82525
r50 1 4 3.67543
.ends

