* SPICE NETLIST
***************************************

.SUBCKT mimcap_g13 plus minus
.ENDS
***************************************
.SUBCKT spiral_inductor_lvs pos neg
.ENDS
***************************************
.SUBCKT inv01 VSS VDD Y A
** N=4 EP=4 IP=0 FDC=2
M0 Y A VSS VSS nmos L=1.4e-07 W=3.5e-07 $X=910 $Y=1820 $D=19
M1 Y A VDD VDD pmos L=1.4e-07 W=7.7e-07 $X=910 $Y=5600 $D=25
.ENDS
***************************************
.SUBCKT ICV_1 1 2 3 4 5 6
** N=6 EP=6 IP=8 FDC=4
X0 1 2 4 3 inv01 $T=-1960 0 0 0 $X=-1960 $Y=0
X1 1 2 6 5 inv01 $T=0 0 0 0 $X=0 $Y=0
.ENDS
***************************************
.SUBCKT mux21 VSS VDD Y S0 A1 A0
** N=12 EP=6 IP=0 FDC=12
M0 VSS S0 7 VSS nmos L=1.4e-07 W=3.5e-07 $X=850 $Y=1610 $D=19
M1 8 S0 VSS VSS nmos L=1.4e-07 W=7.7e-07 $X=1445 $Y=1190 $D=19
M2 9 A1 8 VSS nmos L=1.4e-07 W=7.7e-07 $X=1865 $Y=1190 $D=19
M3 10 A0 9 VSS nmos L=1.4e-07 W=7.7e-07 $X=2425 $Y=1190 $D=19
M4 VSS 7 10 VSS nmos L=1.4e-07 W=7.7e-07 $X=2845 $Y=1190 $D=19
M5 Y 9 VSS VSS nmos L=1.4e-07 W=7.7e-07 $X=3405 $Y=1190 $D=19
M6 VDD S0 7 VDD pmos L=1.4e-07 W=7.7e-07 $X=850 $Y=5670 $D=25
M7 11 S0 VDD VDD pmos L=1.4e-07 W=1.54e-06 $X=1445 $Y=5670 $D=25
M8 9 A0 11 VDD pmos L=1.4e-07 W=1.54e-06 $X=1865 $Y=5670 $D=25
M9 12 A1 9 VDD pmos L=1.4e-07 W=1.54e-06 $X=2425 $Y=5670 $D=25
M10 VDD 7 12 VDD pmos L=1.4e-07 W=1.54e-06 $X=2845 $Y=5670 $D=25
M11 Y 9 VDD VDD pmos L=1.4e-07 W=1.54e-06 $X=3405 $Y=5670 $D=25
.ENDS
***************************************
.SUBCKT nand02 VSS Y VDD A1 A0
** N=6 EP=5 IP=0 FDC=4
M0 6 A1 VSS VSS nmos L=1.4e-07 W=7.7e-07 $X=875 $Y=1190 $D=19
M1 Y A0 6 VSS nmos L=1.4e-07 W=7.7e-07 $X=1295 $Y=1190 $D=19
M2 Y A1 VDD VDD pmos L=1.4e-07 W=1.05e-06 $X=875 $Y=6160 $D=25
M3 VDD A0 Y VDD pmos L=1.4e-07 W=1.05e-06 $X=1435 $Y=6160 $D=25
.ENDS
***************************************
.SUBCKT xnor2 VDD VSS Y A0 A1
** N=9 EP=5 IP=0 FDC=10
M0 7 A0 6 VSS nmos L=1.4e-07 W=7.7e-07 $X=805 $Y=1610 $D=19
M1 VSS A1 7 VSS nmos L=1.4e-07 W=7.7e-07 $X=1225 $Y=1610 $D=19
M2 Y A1 8 VSS nmos L=1.4e-07 W=7.7e-07 $X=2345 $Y=1610 $D=19
M3 8 A0 Y VSS nmos L=1.4e-07 W=7.7e-07 $X=2905 $Y=1610 $D=19
M4 VSS 6 8 VSS nmos L=1.4e-07 W=7.7e-07 $X=3465 $Y=1610 $D=19
M5 6 A0 VDD VDD pmos L=1.4e-07 W=1.19e-06 $X=1175 $Y=4585 $D=25
M6 VDD A1 6 VDD pmos L=1.4e-07 W=1.19e-06 $X=1735 $Y=4585 $D=25
M7 9 A0 VDD VDD pmos L=1.4e-07 W=2.24e-06 $X=2365 $Y=4620 $D=25
M8 Y A1 9 VDD pmos L=1.4e-07 W=2.24e-06 $X=2855 $Y=4585 $D=25
M9 VDD 6 Y VDD pmos L=1.4e-07 W=1.19e-06 $X=3450 $Y=4620 $D=25
.ENDS
***************************************
.SUBCKT oai32 VDD Y VSS A0 A1 A2 B1 B0
** N=12 EP=8 IP=0 FDC=10
M0 9 A0 Y VSS nmos L=1.4e-07 W=7.7e-07 $X=805 $Y=1540 $D=19
M1 Y A1 9 VSS nmos L=1.4e-07 W=7.7e-07 $X=1365 $Y=1540 $D=19
M2 9 A2 Y VSS nmos L=1.4e-07 W=7.7e-07 $X=1925 $Y=1540 $D=19
M3 VSS B1 9 VSS nmos L=1.4e-07 W=7.7e-07 $X=2485 $Y=1540 $D=19
M4 9 B0 VSS VSS nmos L=1.4e-07 W=7.7e-07 $X=3045 $Y=1540 $D=19
M5 10 A0 VDD VDD pmos L=1.4e-07 W=2.73e-06 $X=1085 $Y=4480 $D=25
M6 11 A1 10 VDD pmos L=1.4e-07 W=2.73e-06 $X=1505 $Y=4480 $D=25
M7 Y A2 11 VDD pmos L=1.4e-07 W=2.73e-06 $X=1925 $Y=4480 $D=25
M8 12 B1 Y VDD pmos L=1.4e-07 W=2.03e-06 $X=2520 $Y=4480 $D=25
M9 VDD B0 12 VDD pmos L=1.4e-07 W=2.03e-06 $X=2940 $Y=4480 $D=25
.ENDS
***************************************
.SUBCKT ICV_2 1 2 3 4 5 6 7 8 9 10
** N=10 EP=10 IP=12 FDC=12
X0 1 2 4 3 inv01 $T=6370 0 1 180 $X=4410 $Y=0
X1 2 8 1 5 6 7 9 10 oai32 $T=0 0 0 0 $X=0 $Y=0
.ENDS
***************************************
.SUBCKT ICV_3 1 2 3 4 5 6 7
** N=7 EP=7 IP=9 FDC=12
X0 1 2 4 3 inv01 $T=0 0 0 0 $X=0 $Y=0
X1 2 1 7 5 6 xnor2 $T=-4900 0 0 0 $X=-4900 $Y=0
.ENDS
***************************************
.SUBCKT aoi22 VSS VDD Y A1 A0 B0 B1
** N=10 EP=7 IP=0 FDC=8
M0 8 A1 VSS VSS nmos L=1.4e-07 W=7.7e-07 $X=945 $Y=1190 $D=19
M1 Y A0 8 VSS nmos L=1.4e-07 W=7.7e-07 $X=1365 $Y=1190 $D=19
M2 9 B0 Y VSS nmos L=1.4e-07 W=7.7e-07 $X=1925 $Y=1190 $D=19
M3 VSS B1 9 VSS nmos L=1.4e-07 W=7.7e-07 $X=2345 $Y=1190 $D=19
M4 VDD A1 10 VDD pmos L=1.4e-07 W=1.19e-06 $X=805 $Y=6020 $D=25
M5 10 A0 VDD VDD pmos L=1.4e-07 W=1.19e-06 $X=1365 $Y=6020 $D=25
M6 Y B0 10 VDD pmos L=1.4e-07 W=1.19e-06 $X=1925 $Y=6020 $D=25
M7 10 B1 Y VDD pmos L=1.4e-07 W=1.19e-06 $X=2485 $Y=6020 $D=25
.ENDS
***************************************
.SUBCKT or02 VSS VDD Y A1 A0
** N=7 EP=5 IP=0 FDC=6
M0 6 A1 VSS VSS nmos L=1.4e-07 W=3.5e-07 $X=805 $Y=1330 $D=19
M1 VSS A0 6 VSS nmos L=1.4e-07 W=3.5e-07 $X=1365 $Y=1330 $D=19
M2 Y 6 VSS VSS nmos L=1.4e-07 W=3.5e-07 $X=1925 $Y=1330 $D=19
M3 7 A1 6 VDD pmos L=1.4e-07 W=1.19e-06 $X=910 $Y=5880 $D=25
M4 VDD A0 7 VDD pmos L=1.4e-07 W=1.19e-06 $X=1330 $Y=5880 $D=25
M5 Y 6 VDD VDD pmos L=1.4e-07 W=7.7e-07 $X=1925 $Y=5880 $D=25
.ENDS
***************************************
.SUBCKT ICV_4 1 2 3 4 5 6 7 8
** N=8 EP=8 IP=10 FDC=20
X0 2 1 5 3 4 xnor2 $T=0 0 0 0 $X=0 $Y=0
X1 2 1 8 6 7 xnor2 $T=9800 0 1 180 $X=4900 $Y=0
.ENDS
***************************************
.SUBCKT dffr VDD VSS QB Q D R CLK
** N=23 EP=7 IP=0 FDC=34
M0 8 13 VSS VSS nmos L=1.4e-07 W=1.19e-06 $X=705 $Y=1470 $D=19
M1 9 D 8 VSS nmos L=1.4e-07 W=1.19e-06 $X=1125 $Y=1470 $D=19
M2 10 11 9 VSS nmos L=1.4e-07 W=3.5e-07 $X=1720 $Y=2310 $D=19
M3 VSS 14 10 VSS nmos L=1.4e-07 W=3.5e-07 $X=2140 $Y=2310 $D=19
M4 11 9 VSS VSS nmos L=1.4e-07 W=7.7e-07 $X=2735 $Y=1890 $D=19
M5 VSS R 11 VSS nmos L=1.4e-07 W=7.7e-07 $X=3295 $Y=1890 $D=19
M6 12 11 VSS VSS nmos L=1.4e-07 W=3.5e-07 $X=3890 $Y=2310 $D=19
M7 VSS CLK 13 VSS nmos L=1.4e-07 W=7.7e-07 $X=5395 $Y=2310 $D=19
M8 14 13 VSS VSS nmos L=1.4e-07 W=7.7e-07 $X=5955 $Y=2310 $D=19
M9 16 13 15 VSS nmos L=1.4e-07 W=3.5e-07 $X=7460 $Y=2625 $D=19
M10 17 12 16 VSS nmos L=1.4e-07 W=1.19e-06 $X=8055 $Y=1785 $D=19
M11 VSS 14 17 VSS nmos L=1.4e-07 W=1.19e-06 $X=8475 $Y=1785 $D=19
M12 15 18 VSS VSS nmos L=1.4e-07 W=3.5e-07 $X=9070 $Y=1785 $D=19
M13 VSS R 15 VSS nmos L=1.4e-07 W=3.5e-07 $X=9630 $Y=1785 $D=19
M14 18 16 VSS VSS nmos L=1.4e-07 W=3.5e-07 $X=10190 $Y=1785 $D=19
M15 VSS 16 QB VSS nmos L=1.4e-07 W=7.7e-07 $X=11345 $Y=1330 $D=19
M16 Q QB VSS VSS nmos L=1.4e-07 W=7.7e-07 $X=11905 $Y=1330 $D=19
M17 19 14 VDD VDD pmos L=1.4e-07 W=2.24e-06 $X=705 $Y=4830 $D=25
M18 9 D 19 VDD pmos L=1.4e-07 W=2.24e-06 $X=1125 $Y=4830 $D=25
M19 20 11 9 VDD pmos L=1.4e-07 W=3.5e-07 $X=1720 $Y=6335 $D=25
M20 VDD 13 20 VDD pmos L=1.4e-07 W=3.5e-07 $X=2140 $Y=6335 $D=25
M21 21 9 VDD VDD pmos L=1.4e-07 W=1.05e-06 $X=2735 $Y=5635 $D=25
M22 11 R 21 VDD pmos L=1.4e-07 W=1.05e-06 $X=3155 $Y=5635 $D=25
M23 12 11 VDD VDD pmos L=1.4e-07 W=7.7e-07 $X=4275 $Y=5915 $D=25
M24 VDD CLK 13 VDD pmos L=1.4e-07 W=1.54e-06 $X=5395 $Y=5180 $D=25
M25 14 13 VDD VDD pmos L=1.4e-07 W=1.54e-06 $X=5955 $Y=5180 $D=25
M26 16 14 15 VDD pmos L=1.4e-07 W=3.5e-07 $X=7460 $Y=4830 $D=25
M27 22 12 16 VDD pmos L=1.4e-07 W=2.24e-06 $X=8055 $Y=4830 $D=25
M28 VDD 13 22 VDD pmos L=1.4e-07 W=2.24e-06 $X=8475 $Y=4830 $D=25
M29 23 18 VDD VDD pmos L=1.4e-07 W=3.5e-07 $X=9070 $Y=4830 $D=25
M30 15 R 23 VDD pmos L=1.4e-07 W=3.5e-07 $X=9490 $Y=4830 $D=25
M31 18 16 VDD VDD pmos L=1.4e-07 W=7.7e-07 $X=10190 $Y=6300 $D=25
M32 VDD 16 QB VDD pmos L=1.4e-07 W=1.54e-06 $X=11345 $Y=5530 $D=25
M33 Q QB VDD VDD pmos L=1.4e-07 W=1.54e-06 $X=11905 $Y=5530 $D=25
.ENDS
***************************************
.SUBCKT ICV_5 1 2 3 4 5 6 7 8
** N=8 EP=8 IP=10 FDC=16
X0 2 1 5 3 4 xnor2 $T=2940 0 0 0 $X=2940 $Y=0
X1 1 2 8 6 7 or02 $T=0 0 0 0 $X=0 $Y=0
.ENDS
***************************************
.SUBCKT ICV_6 1 2 3 4 5 6 7 8 9 10
** N=10 EP=10 IP=12 FDC=24
X0 1 2 6 3 4 5 mux21 $T=0 0 1 180 $X=-4410 $Y=0
X1 1 2 10 7 8 9 mux21 $T=0 0 0 0 $X=0 $Y=0
.ENDS
***************************************
.SUBCKT ICV_7 1 2 3 4 5 6 7
** N=7 EP=7 IP=9 FDC=12
X0 1 2 4 3 inv01 $T=-1960 0 0 0 $X=-1960 $Y=0
X1 2 1 7 5 6 xnor2 $T=0 0 0 0 $X=0 $Y=0
.ENDS
***************************************
.SUBCKT ICV_8 1 2 3 4 5 6 7 8
** N=8 EP=8 IP=10 FDC=16
X0 2 1 5 3 4 xnor2 $T=0 0 0 0 $X=0 $Y=0
X1 1 2 8 6 7 or02 $T=-2940 0 0 0 $X=-2940 $Y=0
.ENDS
***************************************
.SUBCKT aoi32 VSS VDD Y A2 A1 A0 B0 B1
** N=12 EP=8 IP=0 FDC=10
M0 9 A2 VSS VSS nmos L=1.4e-07 W=1.19e-06 $X=805 $Y=1190 $D=19
M1 10 A1 9 VSS nmos L=1.4e-07 W=1.19e-06 $X=1225 $Y=1190 $D=19
M2 Y A0 10 VSS nmos L=1.4e-07 W=1.19e-06 $X=1645 $Y=1190 $D=19
M3 11 B0 Y VSS nmos L=1.4e-07 W=7.7e-07 $X=2240 $Y=1610 $D=19
M4 VSS B1 11 VSS nmos L=1.4e-07 W=7.7e-07 $X=2660 $Y=1610 $D=19
M5 12 A2 VDD VDD pmos L=1.4e-07 W=1.19e-06 $X=805 $Y=6020 $D=25
M6 VDD A1 12 VDD pmos L=1.4e-07 W=1.19e-06 $X=1365 $Y=6020 $D=25
M7 12 A0 VDD VDD pmos L=1.4e-07 W=1.19e-06 $X=1925 $Y=6020 $D=25
M8 Y B0 12 VDD pmos L=1.4e-07 W=1.19e-06 $X=2485 $Y=6020 $D=25
M9 12 B1 Y VDD pmos L=1.4e-07 W=1.19e-06 $X=3045 $Y=6020 $D=25
.ENDS
***************************************
.SUBCKT ICV_9 1 2 3 4 5 6 7
** N=7 EP=7 IP=9 FDC=12
X0 1 2 4 3 inv01 $T=0 0 1 180 $X=-1960 $Y=0
X1 2 1 7 5 6 xnor2 $T=0 0 0 0 $X=0 $Y=0
.ENDS
***************************************
.SUBCKT ICV_10 1 2 3 4 5 6 7 8 9
** N=9 EP=9 IP=11 FDC=14
X0 1 2 4 3 inv01 $T=0 0 0 0 $X=0 $Y=0
X1 1 2 6 5 7 8 9 ICV_9 $T=-4900 0 0 0 $X=-6860 $Y=0
.ENDS
***************************************
.SUBCKT buf02 VSS VDD Y A
** N=5 EP=4 IP=0 FDC=4
M0 VSS A 5 VSS nmos L=1.4e-07 W=3.5e-07 $X=860 $Y=1610 $D=19
M1 Y 5 VSS VSS nmos L=1.4e-07 W=7.7e-07 $X=1455 $Y=1190 $D=19
M2 VDD A 5 VDD pmos L=1.4e-07 W=7.7e-07 $X=860 $Y=5670 $D=25
M3 Y 5 VDD VDD pmos L=1.4e-07 W=1.54e-06 $X=1455 $Y=5670 $D=25
.ENDS
***************************************
.SUBCKT xor2 VSS VDD Y A1 A0
** N=10 EP=5 IP=0 FDC=12
M0 7 A0 6 VSS nmos L=1.4e-07 W=7.7e-07 $X=805 $Y=1330 $D=19
M1 VSS A1 7 VSS nmos L=1.4e-07 W=7.7e-07 $X=1225 $Y=1330 $D=19
M2 8 6 VSS VSS nmos L=1.4e-07 W=7.7e-07 $X=1785 $Y=1330 $D=19
M3 9 A1 8 VSS nmos L=1.4e-07 W=7.7e-07 $X=2345 $Y=1330 $D=19
M4 8 A0 9 VSS nmos L=1.4e-07 W=7.7e-07 $X=2905 $Y=1330 $D=19
M5 Y 9 VSS VSS nmos L=1.4e-07 W=3.5e-07 $X=4025 $Y=1330 $D=19
M6 6 A0 VDD VDD pmos L=1.4e-07 W=1.19e-06 $X=875 $Y=5880 $D=25
M7 VDD A1 6 VDD pmos L=1.4e-07 W=1.19e-06 $X=1435 $Y=5880 $D=25
M8 9 6 VDD VDD pmos L=1.4e-07 W=1.19e-06 $X=1995 $Y=5880 $D=25
M9 10 A1 9 VDD pmos L=1.4e-07 W=2.24e-06 $X=2590 $Y=4830 $D=25
M10 VDD A0 10 VDD pmos L=1.4e-07 W=2.24e-06 $X=3010 $Y=4830 $D=25
M11 Y 9 VDD VDD pmos L=1.4e-07 W=7.7e-07 $X=3605 $Y=4830 $D=25
.ENDS
***************************************
.SUBCKT ICV_11 1 2 3 4 5 6 7 8 9
** N=9 EP=9 IP=11 FDC=24
X0 1 2 6 3 4 5 mux21 $T=4900 0 0 0 $X=4900 $Y=0
X1 1 2 9 8 7 xor2 $T=0 0 0 0 $X=0 $Y=0
.ENDS
***************************************
.SUBCKT inv02 VSS VDD Y A
** N=4 EP=4 IP=0 FDC=2
M0 Y A VSS VSS nmos L=1.4e-07 W=7.7e-07 $X=805 $Y=1750 $D=19
M1 Y A VDD VDD pmos L=1.4e-07 W=1.54e-06 $X=805 $Y=4970 $D=25
.ENDS
***************************************
.SUBCKT dffs VDD VSS QB Q D S CLK
** N=23 EP=7 IP=0 FDC=34
M0 8 14 VSS VSS nmos L=1.4e-07 W=1.19e-06 $X=805 $Y=1470 $D=19
M1 9 D 8 VSS nmos L=1.4e-07 W=1.19e-06 $X=1225 $Y=1470 $D=19
M2 10 12 9 VSS nmos L=1.4e-07 W=3.5e-07 $X=1820 $Y=2310 $D=19
M3 VSS 15 10 VSS nmos L=1.4e-07 W=3.5e-07 $X=2240 $Y=2310 $D=19
M4 11 9 VSS VSS nmos L=1.4e-07 W=7.7e-07 $X=2835 $Y=1890 $D=19
M5 12 S 11 VSS nmos L=1.4e-07 W=7.7e-07 $X=3255 $Y=1890 $D=19
M6 13 12 VSS VSS nmos L=1.4e-07 W=7.7e-07 $X=4445 $Y=2310 $D=19
M7 VSS CLK 14 VSS nmos L=1.4e-07 W=7.7e-07 $X=5635 $Y=2310 $D=19
M8 15 14 VSS VSS nmos L=1.4e-07 W=7.7e-07 $X=6195 $Y=2310 $D=19
M9 17 14 16 VSS nmos L=1.4e-07 W=3.5e-07 $X=7700 $Y=2520 $D=19
M10 18 13 17 VSS nmos L=1.4e-07 W=1.19e-06 $X=8295 $Y=1680 $D=19
M11 VSS 15 18 VSS nmos L=1.4e-07 W=1.19e-06 $X=8715 $Y=1680 $D=19
M12 19 20 VSS VSS nmos L=1.4e-07 W=3.5e-07 $X=9310 $Y=2520 $D=19
M13 16 S 19 VSS nmos L=1.4e-07 W=3.5e-07 $X=9730 $Y=2520 $D=19
M14 20 17 VSS VSS nmos L=1.4e-07 W=3.5e-07 $X=10465 $Y=1330 $D=19
M15 VSS 17 QB VSS nmos L=1.4e-07 W=7.7e-07 $X=11655 $Y=1330 $D=19
M16 Q QB VSS VSS nmos L=1.4e-07 W=7.7e-07 $X=12215 $Y=1330 $D=19
M17 21 15 VDD VDD pmos L=1.4e-07 W=2.24e-06 $X=805 $Y=4830 $D=25
M18 9 D 21 VDD pmos L=1.4e-07 W=2.24e-06 $X=1225 $Y=4830 $D=25
M19 22 12 9 VDD pmos L=1.4e-07 W=3.5e-07 $X=1820 $Y=6335 $D=25
M20 VDD 14 22 VDD pmos L=1.4e-07 W=3.5e-07 $X=2240 $Y=6335 $D=25
M21 12 9 VDD VDD pmos L=1.4e-07 W=1.05e-06 $X=2835 $Y=5635 $D=25
M22 VDD S 12 VDD pmos L=1.4e-07 W=1.05e-06 $X=3395 $Y=5635 $D=25
M23 13 12 VDD VDD pmos L=1.4e-07 W=1.54e-06 $X=3990 $Y=5145 $D=25
M24 VDD CLK 14 VDD pmos L=1.4e-07 W=1.54e-06 $X=5635 $Y=5180 $D=25
M25 15 14 VDD VDD pmos L=1.4e-07 W=1.54e-06 $X=6195 $Y=5180 $D=25
M26 17 15 16 VDD pmos L=1.4e-07 W=3.5e-07 $X=7700 $Y=4830 $D=25
M27 23 13 17 VDD pmos L=1.4e-07 W=2.24e-06 $X=8295 $Y=4830 $D=25
M28 VDD 14 23 VDD pmos L=1.4e-07 W=2.24e-06 $X=8715 $Y=4830 $D=25
M29 16 20 VDD VDD pmos L=1.4e-07 W=3.5e-07 $X=9310 $Y=5530 $D=25
M30 VDD S 16 VDD pmos L=1.4e-07 W=3.5e-07 $X=9870 $Y=5530 $D=25
M31 20 17 VDD VDD pmos L=1.4e-07 W=3.5e-07 $X=10430 $Y=5530 $D=25
M32 VDD 17 QB VDD pmos L=1.4e-07 W=1.54e-06 $X=11655 $Y=5530 $D=25
M33 Q QB VDD VDD pmos L=1.4e-07 W=1.54e-06 $X=12215 $Y=5530 $D=25
.ENDS
***************************************
.SUBCKT ICV_12 1 2 3 4 5 6 7 8 9 10
** N=10 EP=10 IP=12 FDC=12
X0 1 2 4 3 inv01 $T=0 0 0 0 $X=0 $Y=0
X1 1 2 10 5 6 7 8 9 aoi32 $T=5880 0 1 180 $X=1960 $Y=0
.ENDS
***************************************
.SUBCKT ICV_13 1 2 3 4 5 6 7 8 9 10 11 12 13
** N=13 EP=13 IP=16 FDC=26
X0 2 6 1 3 4 5 7 8 oai32 $T=0 0 0 0 $X=0 $Y=0
X1 1 2 11 12 13 9 10 11 ICV_8 $T=-4900 0 0 0 $X=-7840 $Y=0
.ENDS
***************************************
.SUBCKT ICV_14 1 2 3 4 5 6 7 8 9 10
** N=10 EP=10 IP=12 FDC=12
X0 1 2 4 3 inv01 $T=-1960 0 0 0 $X=-1960 $Y=0
X1 1 2 10 5 6 7 8 9 aoi32 $T=0 0 0 0 $X=0 $Y=0
.ENDS
***************************************
.SUBCKT ICV_15 1 2 3 4 5 6 7
** N=7 EP=7 IP=9 FDC=12
X0 1 2 4 3 inv01 $T=4900 0 0 0 $X=4900 $Y=0
X1 2 1 7 5 6 xnor2 $T=0 0 0 0 $X=0 $Y=0
.ENDS
***************************************
.SUBCKT or03 VSS VDD Y A2 A1 A0
** N=9 EP=6 IP=0 FDC=8
M0 VSS A2 7 VSS nmos L=1.4e-07 W=4.2e-07 $X=770 $Y=1330 $D=19
M1 7 A1 VSS VSS nmos L=1.4e-07 W=4.2e-07 $X=1330 $Y=1330 $D=19
M2 VSS A0 7 VSS nmos L=1.4e-07 W=4.2e-07 $X=1890 $Y=1330 $D=19
M3 Y 7 VSS VSS nmos L=1.4e-07 W=3.5e-07 $X=2485 $Y=1330 $D=19
M4 8 A2 7 VDD pmos L=1.4e-07 W=2.24e-06 $X=1050 $Y=4830 $D=25
M5 9 A1 8 VDD pmos L=1.4e-07 W=2.24e-06 $X=1470 $Y=4830 $D=25
M6 VDD A0 9 VDD pmos L=1.4e-07 W=2.24e-06 $X=1890 $Y=4830 $D=25
M7 Y 7 VDD VDD pmos L=1.4e-07 W=7.7e-07 $X=2485 $Y=4830 $D=25
.ENDS
***************************************
.SUBCKT ICV_16 1 2 3 4 5 6 7 8 9 10 11
** N=11 EP=11 IP=13 FDC=26
X0 2 1 5 3 4 xnor2 $T=0 0 0 0 $X=0 $Y=0
X1 1 2 9 10 11 6 7 8 ICV_5 $T=0 0 1 180 $X=-7840 $Y=0
.ENDS
***************************************
.SUBCKT ICV_17 1 2 3 4 5 6 7 8 9 10 11
** N=11 EP=11 IP=13 FDC=46
X0 1 2 6 3 4 5 mux21 $T=-4410 0 0 0 $X=-4410 $Y=0
X1 2 1 10 11 7 8 9 dffr $T=0 0 0 0 $X=0 $Y=0
.ENDS
***************************************
.SUBCKT ICV_18 1 2 3 4 5 6 7 8 9 10 11
** N=11 EP=11 IP=13 FDC=20
X0 2 1 5 3 4 xnor2 $T=-4900 0 0 0 $X=-4900 $Y=0
X1 1 2 11 6 7 8 9 10 aoi32 $T=0 0 0 0 $X=0 $Y=0
.ENDS
***************************************
.SUBCKT ICV_19 1 2 3 4 5 6 7
** N=7 EP=7 IP=9 FDC=12
X0 1 2 4 3 inv01 $T=0 0 0 0 $X=0 $Y=0
X1 2 1 7 5 6 xnor2 $T=6860 0 1 180 $X=1960 $Y=0
.ENDS
***************************************
.SUBCKT ICV_20 1 2 3 4 5 6 7 8 9
** N=9 EP=9 IP=11 FDC=36
X0 1 2 4 3 inv01 $T=0 0 0 0 $X=0 $Y=0
X1 2 1 8 9 5 6 7 dffr $T=-12740 0 0 0 $X=-12740 $Y=0
.ENDS
***************************************
.SUBCKT ICV_21 1 2 3 4 5 6 7 8 9 10 11
** N=11 EP=11 IP=13 FDC=20
X0 2 1 5 3 4 xnor2 $T=0 0 0 0 $X=0 $Y=0
X1 1 2 11 6 7 8 9 10 aoi32 $T=-3920 0 0 0 $X=-3920 $Y=0
.ENDS
***************************************
.SUBCKT ICV_22 1 2 3 4 5 6 7 8 9 10 11 12 13 14 15 16
** N=16 EP=16 IP=19 FDC=36
X0 1 2 5 6 7 3 4 5 ICV_8 $T=-8820 0 0 0 $X=-11760 $Y=0
X1 1 2 14 15 16 8 9 10 11 12 13 ICV_21 $T=0 0 0 0 $X=-3920 $Y=0
.ENDS
***************************************
.SUBCKT ICV_23 1 2 3 4 5 6 7 8 9 10 11 12 13
** N=13 EP=13 IP=16 FDC=26
X0 1 2 5 6 7 3 4 5 ICV_8 $T=-4900 0 0 0 $X=-7840 $Y=0
X1 1 2 13 8 9 10 11 12 aoi32 $T=0 0 0 0 $X=0 $Y=0
.ENDS
***************************************
.SUBCKT ICV_24 1 2 3 4 5 6 7 8 9
** N=9 EP=9 IP=12 FDC=18
X0 1 2 4 3 inv01 $T=0 0 0 0 $X=0 $Y=0
X1 1 2 7 8 9 5 6 7 ICV_5 $T=1960 0 0 0 $X=1960 $Y=0
.ENDS
***************************************
.SUBCKT ICV_25 1 2 3 4 5 6 7 8 9 10 11
** N=11 EP=11 IP=14 FDC=68
X0 2 1 6 7 3 4 5 dffr $T=0 0 0 0 $X=0 $Y=0
X1 2 1 10 11 8 9 5 dffr $T=12740 0 0 0 $X=12740 $Y=0
.ENDS
***************************************
.SUBCKT ICV_26 1 2 3 4 5 6 7 8
** N=8 EP=8 IP=10 FDC=20
X0 2 1 5 3 4 xnor2 $T=-4900 0 0 0 $X=-4900 $Y=0
X1 2 1 8 6 7 xnor2 $T=0 0 0 0 $X=0 $Y=0
.ENDS
***************************************
.SUBCKT and04 VSS VDD Y A0 A1 A2 A3
** N=11 EP=7 IP=0 FDC=10
M0 9 A0 8 VSS nmos L=1.4e-07 W=1.61e-06 $X=1085 $Y=1190 $D=19
M1 10 A1 9 VSS nmos L=1.4e-07 W=1.61e-06 $X=1505 $Y=1190 $D=19
M2 11 A2 10 VSS nmos L=1.4e-07 W=1.61e-06 $X=1925 $Y=1190 $D=19
M3 VSS A3 11 VSS nmos L=1.4e-07 W=1.61e-06 $X=2345 $Y=1190 $D=19
M4 Y 8 VSS VSS nmos L=1.4e-07 W=3.5e-07 $X=2940 $Y=2450 $D=19
M5 8 A0 VDD VDD pmos L=1.4e-07 W=1.75e-06 $X=805 $Y=5460 $D=25
M6 VDD A1 8 VDD pmos L=1.4e-07 W=1.75e-06 $X=1365 $Y=5460 $D=25
M7 8 A2 VDD VDD pmos L=1.4e-07 W=1.75e-06 $X=1925 $Y=5460 $D=25
M8 VDD A3 8 VDD pmos L=1.4e-07 W=1.75e-06 $X=2485 $Y=5460 $D=25
M9 Y 8 VDD VDD pmos L=1.4e-07 W=7.7e-07 $X=3080 $Y=5460 $D=25
.ENDS
***************************************
.SUBCKT aoi21 VSS VDD Y A1 A0 B0
** N=8 EP=6 IP=0 FDC=6
M0 7 A1 VSS VSS nmos L=1.4e-07 W=7.7e-07 $X=805 $Y=1170 $D=19
M1 Y A0 7 VSS nmos L=1.4e-07 W=7.7e-07 $X=1225 $Y=1170 $D=19
M2 VSS B0 Y VSS nmos L=1.4e-07 W=3.5e-07 $X=1820 $Y=1590 $D=19
M3 VDD A1 8 VDD pmos L=1.4e-07 W=1.19e-06 $X=805 $Y=6020 $D=25
M4 8 A0 VDD VDD pmos L=1.4e-07 W=1.19e-06 $X=1365 $Y=6020 $D=25
M5 Y B0 8 VDD pmos L=1.4e-07 W=1.19e-06 $X=1925 $Y=6020 $D=25
.ENDS
***************************************
.SUBCKT ICV_27 1 2 3 4 5 6 7 8 9 10 11 12 13 14 15
** N=15 EP=15 IP=20 FDC=38
X0 1 2 4 3 4 5 6 ICV_9 $T=0 0 0 0 $X=-1960 $Y=0
X1 1 2 7 8 9 10 11 10 12 13 14 11 15 ICV_23 $T=-5880 0 0 0 $X=-13720 $Y=0
.ENDS
***************************************
.SUBCKT ICV_28 1 2 3 4 5 6 7 8 9 10 11
** N=11 EP=11 IP=13 FDC=46
X0 1 2 6 3 4 5 mux21 $T=17150 0 1 180 $X=12740 $Y=0
X1 2 1 10 11 7 8 9 dffr $T=0 0 0 0 $X=0 $Y=0
.ENDS
***************************************
.SUBCKT or04 VSS VDD Y A3 A2 A1 A0
** N=11 EP=7 IP=0 FDC=10
M0 8 A3 VSS VSS nmos L=1.4e-07 W=4.9e-07 $X=1225 $Y=1190 $D=19
M1 VSS A2 8 VSS nmos L=1.4e-07 W=4.9e-07 $X=1785 $Y=1190 $D=19
M2 8 A1 VSS VSS nmos L=1.4e-07 W=4.9e-07 $X=2345 $Y=1190 $D=19
M3 VSS A0 8 VSS nmos L=1.4e-07 W=4.9e-07 $X=2905 $Y=1190 $D=19
M4 Y 8 VSS VSS nmos L=1.4e-07 W=3.5e-07 $X=3500 $Y=1190 $D=19
M5 9 A3 8 VDD pmos L=1.4e-07 W=3.01e-06 $X=1330 $Y=4200 $D=25
M6 10 A2 9 VDD pmos L=1.4e-07 W=3.01e-06 $X=1750 $Y=4200 $D=25
M7 11 A1 10 VDD pmos L=1.4e-07 W=3.01e-06 $X=2170 $Y=4200 $D=25
M8 VDD A0 11 VDD pmos L=1.4e-07 W=3.01e-06 $X=2590 $Y=4200 $D=25
M9 Y 8 VDD VDD pmos L=1.4e-07 W=7.7e-07 $X=3185 $Y=4200 $D=25
.ENDS
***************************************
.SUBCKT nor02ii VSS VDD Y A1 A0
** N=7 EP=5 IP=0 FDC=6
M0 VSS A1 6 VSS nmos L=1.4e-07 W=3.5e-07 $X=805 $Y=1190 $D=19
M1 Y A0 VSS VSS nmos L=1.4e-07 W=3.5e-07 $X=1365 $Y=1190 $D=19
M2 VSS 6 Y VSS nmos L=1.4e-07 W=3.5e-07 $X=1925 $Y=1190 $D=19
M3 VDD A1 6 VDD pmos L=1.4e-07 W=7.7e-07 $X=805 $Y=6020 $D=25
M4 7 A0 VDD VDD pmos L=1.4e-07 W=1.19e-06 $X=1400 $Y=6020 $D=25
M5 Y 6 7 VDD pmos L=1.4e-07 W=1.19e-06 $X=1820 $Y=6020 $D=25
.ENDS
***************************************
.SUBCKT nor03 Y VDD VSS A0 A1 A2
** N=8 EP=6 IP=0 FDC=6
M0 VSS A0 Y VSS nmos L=1.4e-07 W=4.2e-07 $X=875 $Y=1190 $D=19
M1 Y A1 VSS VSS nmos L=1.4e-07 W=4.2e-07 $X=1435 $Y=1190 $D=19
M2 VSS A2 Y VSS nmos L=1.4e-07 W=4.2e-07 $X=1995 $Y=1190 $D=19
M3 7 A0 VDD VDD pmos L=1.4e-07 W=1.68e-06 $X=875 $Y=5530 $D=25
M4 8 A1 7 VDD pmos L=1.4e-07 W=1.68e-06 $X=1295 $Y=5530 $D=25
M5 Y A2 8 VDD pmos L=1.4e-07 W=1.68e-06 $X=1715 $Y=5530 $D=25
.ENDS
***************************************
.SUBCKT ICV_29 1 2 3 4 5 6 7 8 9 10 11
** N=11 EP=11 IP=13 FDC=20
X0 2 1 5 3 4 xnor2 $T=0 0 0 0 $X=0 $Y=0
X1 2 9 1 6 7 8 10 11 oai32 $T=-4410 0 0 0 $X=-4410 $Y=0
.ENDS
***************************************
.SUBCKT oai21 VSS Y VDD B0 A1 A0
** N=8 EP=6 IP=0 FDC=6
M0 7 B0 VSS VSS nmos L=1.4e-07 W=7.7e-07 $X=805 $Y=1235 $D=19
M1 Y A1 7 VSS nmos L=1.4e-07 W=7.7e-07 $X=1365 $Y=1235 $D=19
M2 7 A0 Y VSS nmos L=1.4e-07 W=7.7e-07 $X=1925 $Y=1235 $D=19
M3 Y B0 VDD VDD pmos L=1.4e-07 W=1.05e-06 $X=910 $Y=5180 $D=25
M4 8 A1 Y VDD pmos L=1.4e-07 W=2.03e-06 $X=1505 $Y=5180 $D=25
M5 VDD A0 8 VDD pmos L=1.4e-07 W=2.03e-06 $X=1925 $Y=5180 $D=25
.ENDS
***************************************
.SUBCKT ICV_30 1 2 3 4 5 6 7 8
** N=8 EP=8 IP=11 FDC=24
X0 1 2 6 3 4 5 mux21 $T=0 0 0 0 $X=0 $Y=0
X1 1 2 5 8 7 xor2 $T=-4900 0 0 0 $X=-4900 $Y=0
.ENDS
***************************************
.SUBCKT nor04 VSS VDD Y A0 A1 A2 A3
** N=10 EP=7 IP=0 FDC=8
M0 Y A0 VSS VSS nmos L=1.4e-07 W=7.7e-07 $X=1095 $Y=1190 $D=19
M1 VSS A1 Y VSS nmos L=1.4e-07 W=7.7e-07 $X=1655 $Y=1190 $D=19
M2 Y A2 VSS VSS nmos L=1.4e-07 W=7.7e-07 $X=2215 $Y=1190 $D=19
M3 VSS A3 Y VSS nmos L=1.4e-07 W=7.7e-07 $X=2775 $Y=1190 $D=19
M4 8 A0 VDD VDD pmos L=1.4e-07 W=2.24e-06 $X=1095 $Y=4970 $D=25
M5 9 A1 8 VDD pmos L=1.4e-07 W=2.24e-06 $X=1515 $Y=4970 $D=25
M6 10 A2 9 VDD pmos L=1.4e-07 W=2.24e-06 $X=1935 $Y=4970 $D=25
M7 Y A3 10 VDD pmos L=1.4e-07 W=2.24e-06 $X=2355 $Y=4970 $D=25
.ENDS
***************************************
.SUBCKT nand04 VSS Y VDD A3 A2 A1 A0
** N=10 EP=7 IP=0 FDC=8
M0 8 A3 VSS VSS nmos L=1.4e-07 W=1.61e-06 $X=1305 $Y=1190 $D=19
M1 9 A2 8 VSS nmos L=1.4e-07 W=1.61e-06 $X=1725 $Y=1190 $D=19
M2 10 A1 9 VSS nmos L=1.4e-07 W=1.61e-06 $X=2145 $Y=1190 $D=19
M3 Y A0 10 VSS nmos L=1.4e-07 W=1.61e-06 $X=2565 $Y=1190 $D=19
M4 Y A3 VDD VDD pmos L=1.4e-07 W=1.68e-06 $X=1095 $Y=5530 $D=25
M5 VDD A2 Y VDD pmos L=1.4e-07 W=1.68e-06 $X=1655 $Y=5530 $D=25
M6 Y A1 VDD VDD pmos L=1.4e-07 W=1.68e-06 $X=2215 $Y=5530 $D=25
M7 VDD A0 Y VDD pmos L=1.4e-07 W=1.68e-06 $X=2775 $Y=5530 $D=25
.ENDS
***************************************
.SUBCKT ICV_31 1 2 3 4 5 6 7 8 9
** N=9 EP=9 IP=11 FDC=24
X0 1 2 6 3 4 5 mux21 $T=0 0 0 0 $X=0 $Y=0
X1 1 2 9 8 7 xor2 $T=9310 0 1 180 $X=4410 $Y=0
.ENDS
***************************************
.SUBCKT ProjectWrapper VSS VDD WE RegOut[23] clk RegOut[24] RegOut[17] RegOut[18] RegOut[20] RegOut[19] RegOut[26] RegOut[25] RegOut[21] reset RegOut[22] RegOut[27] RegOut[28] RegOut[30] RegOut[16] RegOut[31]
+ RegOut[15] RegOut[29] RegOut[14] Pass RegOut[13] RegOut[9] RegOut[12] A[12] Complete RegOut[11] RegOut[10] A[14] RegOut[8] RegOut[7] RegOut[0] B[7] A[8] B[8] A[13] A[10]
+ A[9] RegOut[1] B[0] StartTest A[15] A[11] RegOut[4] A[6] B[11] B[13] RegOut[2] A[7] B[12] B[14] B[10] B[15] B[3] A[5] B[4] RegOut[5]
+ RegOut[3] RegOut[6] A[2] B[2] A[4] B[1] A[3] A[1] B[9] B[6] A[0] B[5]
** N=2143 EP=72 IP=9180 FDC=19886
M0 2 315 1 VSS nmos L=1.4e-07 W=7.7e-07 $X=66565 $Y=448620 $D=19
M1 VSS 398 2 VSS nmos L=1.4e-07 W=7.7e-07 $X=66985 $Y=448620 $D=19
M2 5 1 VSS VSS nmos L=1.4e-07 W=3.5e-07 $X=67580 $Y=449040 $D=19
M3 VSS 9 6 VSS nmos L=1.4e-07 W=3.5e-07 $X=170945 $Y=302425 $D=19
M4 7 926 VSS VSS nmos L=1.4e-07 W=1.19e-06 $X=171540 $Y=301585 $D=19
M5 8 932 7 VSS nmos L=1.4e-07 W=1.19e-06 $X=171960 $Y=301585 $D=19
M6 9 937 8 VSS nmos L=1.4e-07 W=1.19e-06 $X=172380 $Y=301585 $D=19
M7 10 1613 VSS VSS nmos L=1.4e-07 W=3.5e-07 $X=381120 $Y=28520 $D=19
M8 VSS 339 10 VSS nmos L=1.4e-07 W=3.5e-07 $X=381680 $Y=28520 $D=19
M9 1 315 VDD VDD pmos L=1.4e-07 W=1.05e-06 $X=66425 $Y=453590 $D=25
M10 VDD 398 1 VDD pmos L=1.4e-07 W=1.05e-06 $X=66985 $Y=453590 $D=25
M11 5 1 VDD VDD pmos L=1.4e-07 W=7.7e-07 $X=67580 $Y=453590 $D=25
M12 VDD 9 6 VDD pmos L=1.4e-07 W=7.7e-07 $X=170805 $Y=306205 $D=25
M13 9 926 VDD VDD pmos L=1.4e-07 W=1.4e-06 $X=171400 $Y=306205 $D=25
M14 VDD 932 9 VDD pmos L=1.4e-07 W=1.4e-06 $X=171960 $Y=306205 $D=25
M15 9 937 VDD VDD pmos L=1.4e-07 W=1.4e-06 $X=172520 $Y=306205 $D=25
M16 11 1613 VDD VDD pmos L=1.4e-07 W=1.19e-06 $X=381260 $Y=33350 $D=25
M17 10 339 11 VDD pmos L=1.4e-07 W=1.19e-06 $X=381680 $Y=33350 $D=25
X18 VSS VDD 28 78 inv01 $T=6390 321400 1 180 $X=4430 $Y=321400
X19 VSS VDD 26 60 inv01 $T=6880 132355 1 180 $X=4920 $Y=132355
X20 VSS VDD 129 112 inv01 $T=12760 363410 0 0 $X=12760 $Y=363410
X21 VSS VDD 90 127 inv01 $T=15670 321400 1 180 $X=13710 $Y=321400
X22 VSS VDD 100 121 inv01 $T=15700 6325 1 180 $X=13740 $Y=6325
X23 VSS VDD 142 105 inv01 $T=15670 321400 0 0 $X=15670 $Y=321400
X24 VSS VDD 145 66 inv01 $T=15700 90345 0 0 $X=15700 $Y=90345
X25 VSS VDD 143 118 inv01 $T=15700 132355 0 0 $X=15700 $Y=132355
X26 VSS VDD 147 98 inv01 $T=16680 69340 0 0 $X=16680 $Y=69340
X27 VSS VDD 122 167 inv01 $T=20600 69340 1 180 $X=18640 $Y=69340
X28 VSS VDD 195 149 inv01 $T=24980 174365 0 0 $X=24980 $Y=174365
X29 VSS VDD 190 140 inv01 $T=27950 342405 1 180 $X=25990 $Y=342405
X30 VSS VDD 211 134 inv01 $T=34320 342405 1 180 $X=32360 $Y=342405
X31 VSS VDD 209 170 inv01 $T=34320 363410 1 180 $X=32360 $Y=363410
X32 VSS VDD 222 255 inv01 $T=36265 258385 1 180 $X=34305 $Y=258385
X33 VSS VDD 263 230 inv01 $T=37170 195370 0 0 $X=37170 $Y=195370
X34 VSS VDD 91 249 inv01 $T=42070 195370 0 0 $X=42070 $Y=195370
X35 VSS VDD 242 285 inv01 $T=46940 27330 1 180 $X=44980 $Y=27330
X36 VSS VDD 138 293 inv01 $T=47460 132355 0 0 $X=47460 $Y=132355
X37 VSS VDD 60 334 inv01 $T=52940 237380 1 180 $X=50980 $Y=237380
X38 VSS VDD 377 375 inv01 $T=60720 321400 0 0 $X=60720 $Y=321400
X39 VSS VDD 374 323 inv01 $T=62740 216375 1 180 $X=60780 $Y=216375
X40 VSS VDD 158 333 inv01 $T=61670 132355 0 0 $X=61670 $Y=132355
X41 VSS VDD 406 335 inv01 $T=68040 69340 1 180 $X=66080 $Y=69340
X42 VSS VDD 425 421 inv01 $T=68755 237380 0 0 $X=68755 $Y=237380
X43 VSS VDD 452 419 inv01 $T=72035 258385 0 0 $X=72035 $Y=258385
X44 VSS VDD 420 423 inv01 $T=74900 132355 1 180 $X=72940 $Y=132355
X45 VSS VDD 451 432 inv01 $T=73890 27330 0 0 $X=73890 $Y=27330
X46 VSS VDD 466 443 inv01 $T=79650 300395 1 180 $X=77690 $Y=300395
X47 VSS VDD 335 382 inv01 $T=86570 90345 1 180 $X=84610 $Y=90345
X48 VSS VDD 470 504 inv01 $T=86660 69340 1 180 $X=84700 $Y=69340
X49 VSS VDD 526 474 inv01 $T=88205 111350 0 0 $X=88205 $Y=111350
X50 VSS VDD 539 522 inv01 $T=99475 279390 1 180 $X=97515 $Y=279390
X51 VSS VDD 578 573 inv01 $T=99710 300395 0 0 $X=99710 $Y=300395
X52 VSS VDD 564 447 inv01 $T=100200 27330 0 0 $X=100200 $Y=27330
X53 VSS VDD 562 554 inv01 $T=102190 48335 1 180 $X=100230 $Y=48335
X54 VSS VDD 328 382 inv01 $T=100290 90345 0 0 $X=100290 $Y=90345
X55 VSS VDD 620 630 inv01 $T=112705 363410 1 180 $X=110745 $Y=363410
X56 VSS VDD 581 613 inv01 $T=112970 48335 1 180 $X=111010 $Y=48335
X57 VSS VDD 632 625 inv01 $T=111235 258385 0 0 $X=111235 $Y=258385
X58 VSS VDD 640 600 inv01 $T=119000 69340 1 180 $X=117040 $Y=69340
X59 VSS VDD 382 663 inv01 $T=119075 384415 1 180 $X=117115 $Y=384415
X60 VSS VDD 664 658 inv01 $T=117605 258385 0 0 $X=117605 $Y=258385
X61 VSS VDD 691 688 inv01 $T=122995 384415 0 0 $X=122995 $Y=384415
X62 VSS VDD 717 608 inv01 $T=127405 342405 0 0 $X=127405 $Y=342405
X63 VSS VDD 637 741 inv01 $T=134280 216375 1 180 $X=132320 $Y=216375
X64 VSS VDD 752 743 inv01 $T=134280 216375 0 0 $X=134280 $Y=216375
X65 VSS VDD 757 730 inv01 $T=135735 111350 0 0 $X=135735 $Y=111350
X66 VSS VDD 759 686 inv01 $T=142105 363410 1 180 $X=140145 $Y=363410
X67 VSS VDD 776 556 inv01 $T=143085 258385 1 180 $X=141125 $Y=258385
X68 VSS VDD 819 755 inv01 $T=149380 69340 0 0 $X=149380 $Y=69340
X69 VSS VDD 805 757 inv01 $T=151530 27330 0 0 $X=151530 $Y=27330
X70 VSS VDD 814 736 inv01 $T=155335 237380 1 180 $X=153375 $Y=237380
X71 VSS VDD 882 826 inv01 $T=161880 174365 0 0 $X=161880 $Y=174365
X72 VSS VDD 868 837 inv01 $T=165740 153360 1 180 $X=163780 $Y=153360
X73 VSS VDD 767 730 inv01 $T=168565 111350 1 180 $X=166605 $Y=111350
X74 VSS VDD 912 909 inv01 $T=167760 174365 0 0 $X=167760 $Y=174365
X75 VSS VDD 528 962 inv01 $T=179345 237380 1 180 $X=177385 $Y=237380
X76 VSS VDD 968 915 inv01 $T=177385 384415 0 0 $X=177385 $Y=384415
X77 VSS VDD 978 966 inv01 $T=182220 195370 1 180 $X=180260 $Y=195370
X78 VSS VDD 730 994 inv01 $T=183265 237380 1 180 $X=181305 $Y=237380
X79 VSS VDD 863 871 inv01 $T=184360 27330 1 180 $X=182400 $Y=27330
X80 VSS VDD 1037 997 inv01 $T=191040 69340 0 0 $X=191040 $Y=69340
X81 VSS VDD 1025 1010 inv01 $T=193000 195370 1 180 $X=191040 $Y=195370
X82 VSS VDD 156 1074 inv01 $T=202800 195370 1 180 $X=200840 $Y=195370
X83 VSS VDD 300 135 inv01 $T=204760 195370 0 0 $X=204760 $Y=195370
X84 VSS VDD 1020 974 inv01 $T=205315 111350 0 0 $X=205315 $Y=111350
X85 VSS VDD 1112 1057 inv01 $T=208160 90345 0 0 $X=208160 $Y=90345
X86 VSS VDD 135 1103 inv01 $T=210705 237380 1 180 $X=208745 $Y=237380
X87 VSS VDD 77 1118 inv01 $T=212080 90345 1 180 $X=210120 $Y=90345
X88 VSS VDD 1126 1109 inv01 $T=210215 363410 0 0 $X=210215 $Y=363410
X89 VSS VDD 874 1133 inv01 $T=213155 279390 1 180 $X=211195 $Y=279390
X90 VSS VDD 183 299 inv01 $T=212080 90345 0 0 $X=212080 $Y=90345
X91 VSS VDD 1157 1153 inv01 $T=215840 405420 0 0 $X=215840 $Y=405420
X92 VSS VDD 284 1101 inv01 $T=222970 216375 1 180 $X=221010 $Y=216375
X93 VSS VDD 1182 1168 inv01 $T=221230 405420 0 0 $X=221230 $Y=405420
X94 VSS VDD 1103 1275 inv01 $T=242065 279390 1 180 $X=240105 $Y=279390
X95 VSS VDD 1260 934 inv01 $T=243535 363410 1 180 $X=241575 $Y=363410
X96 VSS VDD 1235 1141 inv01 $T=243930 90345 0 0 $X=243930 $Y=90345
X97 VSS VDD 1141 1296 inv01 $T=248925 279390 1 180 $X=246965 $Y=279390
X98 VSS VDD 1202 1320 inv01 $T=252845 258385 0 0 $X=252845 $Y=258385
X99 VSS VDD 1191 1263 inv01 $T=254820 216375 1 180 $X=252860 $Y=216375
X100 VSS VDD 200 1202 inv01 $T=253335 6325 0 0 $X=253335 $Y=6325
X101 VSS VDD 1297 1333 inv01 $T=256765 258385 1 180 $X=254805 $Y=258385
X102 VSS VDD 1319 1350 inv01 $T=262390 405420 1 180 $X=260430 $Y=405420
X103 VSS VDD 1373 WE inv01 $T=260890 321400 0 0 $X=260890 $Y=321400