* LVS netlist generated with ICnet by 'bxk5113' on Mon Dec  2 2019 at 12:57:34

*
* Globals.
*
.global VSS VDD

*
* Component pathname : $GDKGATES/inv01
*
.subckt inv01  Y A VDD_esc1 VSS_esc2

        MP1 Y A VDD_esc1 VDD_esc1 pmos l=0.14u w=0.77u m=1
        MN1 Y A VSS_esc2 VSS_esc2 nmos l=0.14u w=0.35u m=1
.ends inv01

*
* Component pathname : $GDKGATES/xnor2
*
.subckt xnor2  Y A0 A1 VDD_esc1 VSS_esc2

        MP5 N$9 A1 VDD_esc1 VDD_esc1 pmos l=0.14u w=1.19u m=1
        MP4 N$9 A0 VDD_esc1 VDD_esc1 pmos l=0.14u w=1.19u m=1
        MN4 N$9 A0 N$8 VSS_esc2 nmos l=0.14u w=0.77u m=1
        MN3 N$3 N$9 VSS_esc2 VSS_esc2 nmos l=0.14u w=0.77u m=1
        MN2 Y A1 N$3 VSS_esc2 nmos l=0.14u w=0.77u m=1
        MN1 Y A0 N$3 VSS_esc2 nmos l=0.14u w=0.77u m=1
        MP3 Y A1 N$1 VDD_esc1 pmos l=0.14u w=2.24u m=1
        MP2 Y N$9 VDD_esc1 VDD_esc1 pmos l=0.14u w=1.19u m=1
        MP1 N$1 A0 VDD_esc1 VDD_esc1 pmos l=0.14u w=2.24u m=1
        MN5 N$8 A1 VSS_esc2 VSS_esc2 nmos l=0.14u w=0.77u m=1
.ends xnor2

*
* Component pathname : $GDKGATES/and03
*
.subckt and03  Y A0 A1 A2 VDD_esc1 VSS_esc2

        MP3 A A2 VDD_esc1 VDD_esc1 pmos l=0.14u w=1.4u m=1
        MN2 A A0 N$214 VSS_esc2 nmos l=0.14u w=1.19u m=1
        MN1 N$215 A2 VSS_esc2 VSS_esc2 nmos l=0.14u w=1.19u m=1
        MN3 N$214 A1 N$215 VSS_esc2 nmos l=0.14u w=1.19u m=1
        MN4 Y A VSS_esc2 VSS_esc2 nmos l=0.14u w=0.35u m=1
        MP2 A A1 VDD_esc1 VDD_esc1 pmos l=0.14u w=1.4u m=1
        MP1 A A0 VDD_esc1 VDD_esc1 pmos l=0.14u w=1.4u m=1
        MP4 Y A VDD_esc1 VDD_esc1 pmos l=0.14u w=0.77u m=1
.ends and03

*
* Component pathname : $GDKGATES/and04
*
.subckt and04  Y A0 A1 A2 A3 VDD_esc1 VSS_esc2

        MN4 N$6 A1 N$7 VSS_esc2 nmos l=0.14u w=1.61u m=1
        MN3 N$11 A0 N$6 VSS_esc2 nmos l=0.14u w=1.61u m=1
        MP4 N$11 A3 VDD_esc1 VDD_esc1 pmos l=0.14u w=1.75u m=1
        MP3 N$11 A2 VDD_esc1 VDD_esc1 pmos l=0.14u w=1.75u m=1
        MN2 N$2 A3 VSS_esc2 VSS_esc2 nmos l=0.14u w=1.61u m=1
        MN1 N$7 A2 N$2 VSS_esc2 nmos l=0.14u w=1.61u m=1
        MN5 Y N$11 VSS_esc2 VSS_esc2 nmos l=0.14u w=0.35u m=1
        MP2 N$11 A1 VDD_esc1 VDD_esc1 pmos l=0.14u w=1.75u m=1
        MP1 N$11 A0 VDD_esc1 VDD_esc1 pmos l=0.14u w=1.75u m=1
        MP5 Y N$11 VDD_esc1 VDD_esc1 pmos l=0.14u w=0.77u m=1
.ends and04

*
* Component pathname : $GDKGATES/mux21
*
.subckt mux21  Y A0 A1 S0 VDD_esc1 VSS_esc2

        MN4 N$11 A1 N$3 VSS_esc2 nmos l=0.14u w=0.77u m=1
        M1 Y N$11 VDD_esc1 VDD_esc1 pmos l=0.14u w=1.54u m=1
        MN5 N$3 S0 VSS_esc2 VSS_esc2 nmos l=0.14u w=0.77u m=1
        M2 Y N$11 VSS_esc2 VSS_esc2 nmos l=0.14u w=0.77u m=1
        MP5 N$11 A1 N$2 VDD_esc1 pmos l=0.14u w=1.54u m=1
        MP4 N$2 N$231 VDD_esc1 VDD_esc1 pmos l=0.14u w=1.54u m=1
        MN3 N$1 N$231 VSS_esc2 VSS_esc2 nmos l=0.14u w=0.77u m=1
        MN2 N$11 A0 N$1 VSS_esc2 nmos l=0.14u w=0.77u m=1
        MP2 N$7 S0 VDD_esc1 VDD_esc1 pmos l=0.14u w=1.54u m=1
        MN1 N$231 S0 VSS_esc2 VSS_esc2 nmos l=0.14u w=0.35u m=1
        MP1 N$231 S0 VDD_esc1 VDD_esc1 pmos l=0.14u w=0.77u m=1
        MP3 N$11 A0 N$7 VDD_esc1 pmos l=0.14u w=1.54u m=1
.ends mux21

*
* Component pathname : $GDKGATES/dffr
*
.subckt dffr  Q QB CLK D R VDD_esc1 VSS_esc2

        MN17 N$25 bclk- N$27 VSS_esc2 nmos l=0.14u w=0.35u m=1
        MP9 N$29 N$28 VDD_esc1 VDD_esc1 pmos l=0.14u w=0.35u m=1
        MP17 N$27 R N$29 VDD_esc1 pmos l=0.14u w=0.35u m=1
        MP8 N$25 bclk N$27 VDD_esc1 pmos l=0.14u w=0.35u m=1
        MN16 N$27 N$28 VSS_esc2 VSS_esc2 nmos l=0.14u w=0.35u m=1
        MN12 N$14 bclk VSS_esc2 VSS_esc2 nmos l=0.14u w=0.35u m=1
        MN11 N$12 bclk- VSS_esc2 VSS_esc2 nmos l=0.14u w=1.19u m=1
        MN10 N$11 D N$12 VSS_esc2 nmos l=0.14u w=1.19u m=1
        MP12 N$11 D N$10 VDD_esc1 pmos l=0.14u w=2.24u m=1
        MP11 N$10 bclk VDD_esc1 VDD_esc1 pmos l=0.14u w=2.24u m=1
        MP13 N$11 N$16 N$18 VDD_esc1 pmos l=0.14u w=0.35u m=1
        MN13 N$11 N$16 N$14 VSS_esc2 nmos l=0.14u w=0.35u m=1
        MN6 N$21 bclk VSS_esc2 VSS_esc2 nmos l=0.14u w=1.19u m=1
        MP4 Q QB VDD_esc1 VDD_esc1 pmos l=0.14u w=1.54u m=1
        MN4 Q QB VSS_esc2 VSS_esc2 nmos l=0.14u w=0.77u m=1
        MN2 bclk bclk- VSS_esc2 VSS_esc2 nmos l=0.14u w=0.77u m=1
        MN7 N$28 N$25 VSS_esc2 VSS_esc2 nmos l=0.14u w=0.35u m=1
        MN9 N$22 N$16 VSS_esc2 VSS_esc2 nmos l=0.14u w=0.35u m=1
        MP10 N$22 N$16 VDD_esc1 VDD_esc1 pmos l=0.14u w=0.77u m=1
        MP15 N$18 bclk- VDD_esc1 VDD_esc1 pmos l=0.14u w=0.35u m=1
        MP14 N$13 N$11 VDD_esc1 VDD_esc1 pmos l=0.14u w=1.05u m=1
        MP1 bclk- CLK VDD_esc1 VDD_esc1 pmos l=0.14u w=1.54u m=1
        MN5 N$25 N$22 N$21 VSS_esc2 nmos l=0.14u w=1.19u m=1
        MN15 N$16 R VSS_esc2 VSS_esc2 nmos l=0.14u w=0.77u m=1
        MP16 N$16 R N$13 VDD_esc1 pmos l=0.14u w=1.05u m=1
        MP2 bclk bclk- VDD_esc1 VDD_esc1 pmos l=0.14u w=1.54u m=1
        MN1 bclk- CLK VSS_esc2 VSS_esc2 nmos l=0.14u w=0.77u m=1
        MN3 QB N$25 VSS_esc2 VSS_esc2 nmos l=0.14u w=0.77u m=1
        MP3 QB N$25 VDD_esc1 VDD_esc1 pmos l=0.14u w=1.54u m=1
        MN14 N$16 N$11 VSS_esc2 VSS_esc2 nmos l=0.14u w=0.77u m=1
        MP7 N$28 N$25 VDD_esc1 VDD_esc1 pmos l=0.14u w=0.77u m=1
        MP6 N$25 N$22 N$23 VDD_esc1 pmos l=0.14u w=2.24u m=1
        MP5 N$23 bclk- VDD_esc1 VDD_esc1 pmos l=0.14u w=2.24u m=1
        MN8 N$27 R VSS_esc2 VSS_esc2 nmos l=0.14u w=0.35u m=1
.ends dffr

*
* Component pathname : $GDKGATES/or04
*
.subckt or04  Y A0 A1 A2 A3 VDD_esc1 VSS_esc2

        MN4 N$9 A3 VSS_esc2 VSS_esc2 nmos l=0.14u w=0.49u m=1
        MP4 N$9 A3 N$6 VDD_esc1 pmos l=0.14u w=3.01u m=1
        MN3 N$9 A0 VSS_esc2 VSS_esc2 nmos l=0.14u w=0.49u m=1
        MP3 N$6 A2 N$3 VDD_esc1 pmos l=0.14u w=3.01u m=1
        MP5 Y N$9 VDD_esc1 VDD_esc1 pmos l=0.14u w=0.77u m=1
        MN2 N$9 A1 VSS_esc2 VSS_esc2 nmos l=0.14u w=0.49u m=1
        MN1 N$9 A2 VSS_esc2 VSS_esc2 nmos l=0.14u w=0.49u m=1
        MP2 N$3 A1 N$1 VDD_esc1 pmos l=0.14u w=3.01u m=1
        MP1 N$1 A0 VDD_esc1 VDD_esc1 pmos l=0.14u w=3.01u m=1
        MN5 Y N$9 VSS_esc2 VSS_esc2 nmos l=0.14u w=0.35u m=1
.ends or04

*
* Component pathname : $GDKGATES/inv02
*
.subckt inv02  Y A VDD_esc1 VSS_esc2

        MP1 Y A VDD_esc1 VDD_esc1 pmos l=0.14u w=1.54u m=1
        MN1 Y A VSS_esc2 VSS_esc2 nmos l=0.14u w=0.77u m=1
.ends inv02

*
* Component pathname : $GDKGATES/dffs
*
.subckt dffs  Q QB CLK D S VDD_esc1 VSS_esc2

        MP6 N$11 bclk- VDD_esc1 VDD_esc1 pmos l=0.14u w=2.24u m=1
        MP7 N$12 N$250 N$11 VDD_esc1 pmos l=0.14u w=2.24u m=1
        MP8 N$27 N$12 VDD_esc1 VDD_esc1 pmos l=0.14u w=0.35u m=1
        MN6 N$12 N$250 N$13 VSS_esc2 nmos l=0.14u w=1.19u m=1
        MP12 N$261 D N$17 VDD_esc1 pmos l=0.14u w=2.24u m=1
        MP4 Q QB VDD_esc1 VDD_esc1 pmos l=0.14u w=1.54u m=1
        MP11 N$17 bclk VDD_esc1 VDD_esc1 pmos l=0.14u w=2.24u m=1
        MN2 bclk bclk- VSS_esc2 VSS_esc2 nmos l=0.14u w=0.77u m=1
        MN4 Q QB VSS_esc2 VSS_esc2 nmos l=0.14u w=0.77u m=1
        MN17 N$28 S N$31 VSS_esc2 nmos l=0.14u w=0.35u m=1
        MP15 N$21 bclk- VDD_esc1 VDD_esc1 pmos l=0.14u w=0.35u m=1
        MN13 N$22 bclk VSS_esc2 VSS_esc2 nmos l=0.14u w=0.35u m=1
        MP14 N$26 N$261 VDD_esc1 VDD_esc1 pmos l=0.14u w=1.05u m=1
        MP13 N$261 N$26 N$21 VDD_esc1 pmos l=0.14u w=0.35u m=1
        MP16 N$26 S VDD_esc1 VDD_esc1 pmos l=0.14u w=1.05u m=1
        MN16 N$26 S N$23 VSS_esc2 nmos l=0.14u w=0.77u m=1
        MN3 QB N$12 VSS_esc2 VSS_esc2 nmos l=0.14u w=0.77u m=1
        MP3 QB N$12 VDD_esc1 VDD_esc1 pmos l=0.14u w=1.54u m=1
        MP9 N$12 bclk N$28 VDD_esc1 pmos l=0.14u w=0.35u m=1
        MN10 N$12 bclk- N$28 VSS_esc2 nmos l=0.14u w=0.35u m=1
        MN14 N$261 N$26 N$22 VSS_esc2 nmos l=0.14u w=0.35u m=1
        MN9 N$31 N$27 VSS_esc2 VSS_esc2 nmos l=0.14u w=0.35u m=1
        MN15 N$23 N$261 VSS_esc2 VSS_esc2 nmos l=0.14u w=0.77u m=1
        MN8 N$27 N$12 VSS_esc2 VSS_esc2 nmos l=0.14u w=0.35u m=1
        MN7 N$13 bclk VSS_esc2 VSS_esc2 nmos l=0.14u w=1.19u m=1
        MP17 N$28 N$27 VDD_esc1 VDD_esc1 pmos l=0.14u w=0.35u m=1
        MN11 N$261 D N$19 VSS_esc2 nmos l=0.14u w=1.19u m=1
        MN5 N$250 N$26 VSS_esc2 VSS_esc2 nmos l=0.14u w=0.77u m=1
        MP5 N$250 N$26 VDD_esc1 VDD_esc1 pmos l=0.14u w=1.54u m=1
        MP2 bclk bclk- VDD_esc1 VDD_esc1 pmos l=0.14u w=1.54u m=1
        MN1 bclk- CLK VSS_esc2 VSS_esc2 nmos l=0.14u w=0.77u m=1
        MN12 N$19 bclk- VSS_esc2 VSS_esc2 nmos l=0.14u w=1.19u m=1
        MP1 bclk- CLK VDD_esc1 VDD_esc1 pmos l=0.14u w=1.54u m=1
        MP10 N$28 S VDD_esc1 VDD_esc1 pmos l=0.14u w=0.35u m=1
.ends dffs

*
* Component pathname : $GDKGATES/xor2
*
.subckt xor2  Y A0 A1 VDD_esc1 VSS_esc2

        MN5 N$6 A1 VSS_esc2 VSS_esc2 nmos l=0.14u w=0.77u m=1
        MN4 N$7 A0 N$6 VSS_esc2 nmos l=0.14u w=0.77u m=1
        MP4 N$7 A1 VDD_esc1 VDD_esc1 pmos l=0.14u w=1.19u m=1
        MP3 N$7 A0 VDD_esc1 VDD_esc1 pmos l=0.14u w=1.19u m=1
        MP1 Y N$4 VDD_esc1 VDD_esc1 pmos l=0.14u w=0.77u m=1
        MN3 N$3 N$7 VSS_esc2 VSS_esc2 nmos l=0.14u w=0.77u m=1
        MN2 N$4 A1 N$3 VSS_esc2 nmos l=0.14u w=0.77u m=1
        MN1 N$4 A0 N$3 VSS_esc2 nmos l=0.14u w=0.77u m=1
        MP6 N$4 A1 N$1 VDD_esc1 pmos l=0.14u w=2.24u m=1
        MP2 N$4 N$7 VDD_esc1 VDD_esc1 pmos l=0.14u w=1.19u m=1
        MP5 N$1 A0 VDD_esc1 VDD_esc1 pmos l=0.14u w=2.24u m=1
        MN6 Y N$4 VSS_esc2 VSS_esc2 nmos l=0.14u w=0.35u m=1
.ends xor2

*
* Component pathname : $GDKGATES/nand04
*
.subckt nand04  Y A0 A1 A2 A3 VDD_esc1 VSS_esc2

        MP4 Y A3 VDD_esc1 VDD_esc1 pmos l=0.14u w=1.68u m=1
        MP3 Y A2 VDD_esc1 VDD_esc1 pmos l=0.14u w=1.68u m=1
        MN2 N$2 A3 VSS_esc2 VSS_esc2 nmos l=0.14u w=1.61u m=1
        MN1 N$9 A2 N$2 VSS_esc2 nmos l=0.14u w=1.61u m=1
        MN3 Y A0 N$6 VSS_esc2 nmos l=0.14u w=1.61u m=1
        MP2 Y A1 VDD_esc1 VDD_esc1 pmos l=0.14u w=1.68u m=1
        MP1 Y A0 VDD_esc1 VDD_esc1 pmos l=0.14u w=1.68u m=1
        MN4 N$6 A1 N$9 VSS_esc2 nmos l=0.14u w=1.61u m=1
.ends nand04

*
* Component pathname : $GDKGATES/nor04
*
.subckt nor04  Y A0 A1 A2 A3 VDD_esc1 VSS_esc2

        MP4 Y A3 N$6 VDD_esc1 pmos l=0.14u w=2.24u m=1
        MN3 Y A0 VSS_esc2 VSS_esc2 nmos l=0.14u w=0.77u m=1
        MP3 N$6 A2 N$3 VDD_esc1 pmos l=0.14u w=2.24u m=1
        MN4 Y A3 VSS_esc2 VSS_esc2 nmos l=0.14u w=0.77u m=1
        MN2 Y A1 VSS_esc2 VSS_esc2 nmos l=0.14u w=0.77u m=1
        MN1 Y A2 VSS_esc2 VSS_esc2 nmos l=0.14u w=0.77u m=1
        MP2 N$3 A1 N$1 VDD_esc1 pmos l=0.14u w=2.24u m=1
        MP1 N$1 A0 VDD_esc1 VDD_esc1 pmos l=0.14u w=2.24u m=1
.ends nor04

*
* Component pathname : $GDKGATES/or02
*
.subckt or02  Y A0 A1 VDD_esc1 VSS_esc2

        MP4 Y N$5 VDD_esc1 VDD_esc1 pmos l=0.14u w=0.77u m=1
        MN2 N$5 A0 VSS_esc2 VSS_esc2 nmos l=0.14u w=0.35u m=1
        MN1 N$5 A1 VSS_esc2 VSS_esc2 nmos l=0.14u w=0.35u m=1
        MP3 N$5 A1 N$1 VDD_esc1 pmos l=0.14u w=1.19u m=1
        MP2 N$1 A0 VDD_esc1 VDD_esc1 pmos l=0.14u w=1.19u m=1
        MN3 Y N$5 VSS_esc2 VSS_esc2 nmos l=0.14u w=0.35u m=1
.ends or02

*
* Component pathname : $GDKGATES/oai32
*
.subckt oai32  Y A0 A1 A2 B0 B1 VDD_esc1 VSS_esc2

        MN5 Y A2 N$6 VSS_esc2 nmos l=0.14u w=0.77u m=1
        MN4 N$6 B1 VSS_esc2 VSS_esc2 nmos l=0.14u w=0.77u m=1
        MP5 Y B1 N$4 VDD_esc1 pmos l=0.14u w=2.03u m=1
        MN3 N$6 B0 VSS_esc2 VSS_esc2 nmos l=0.14u w=0.77u m=1
        MN2 Y A1 N$6 VSS_esc2 nmos l=0.14u w=0.77u m=1
        MN1 Y A0 N$6 VSS_esc2 nmos l=0.14u w=0.77u m=1
        MP3 Y A2 N$12 VDD_esc1 pmos l=0.14u w=2.73u m=1
        MP2 N$12 A1 N$5 VDD_esc1 pmos l=0.14u w=2.73u m=1
        MP1 N$5 A0 VDD_esc1 VDD_esc1 pmos l=0.14u w=2.73u m=1
        MP4 N$4 B0 VDD_esc1 VDD_esc1 pmos l=0.14u w=2.03u m=1
.ends oai32

*
* Component pathname : $GDKGATES/aoi32
*
.subckt aoi32  Y A0 A1 A2 B0 B1 VDD_esc1 VSS_esc2

        MN4 Y B0 N$6 VSS_esc2 nmos l=0.14u w=0.77u m=1
        MN3 N$5 A2 VSS_esc2 VSS_esc2 nmos l=0.14u w=1.19u m=1
        MN2 N$4 A1 N$5 VSS_esc2 nmos l=0.14u w=1.19u m=1
        MN1 Y A0 N$4 VSS_esc2 nmos l=0.14u w=1.19u m=1
        MP5 Y B0 N$11 VDD_esc1 pmos l=0.14u w=1.19u m=1
        MP4 Y B1 N$11 VDD_esc1 pmos l=0.14u w=1.19u m=1
        MP3 N$11 A0 VDD_esc1 VDD_esc1 pmos l=0.14u w=1.19u m=1
        MP2 N$11 A1 VDD_esc1 VDD_esc1 pmos l=0.14u w=1.19u m=1
        MP1 N$11 A2 VDD_esc1 VDD_esc1 pmos l=0.14u w=1.19u m=1
        MN5 N$6 B1 VSS_esc2 VSS_esc2 nmos l=0.14u w=0.77u m=1
.ends aoi32

*
* Component pathname : $GDKGATES/nand02
*
.subckt nand02  Y A0 A1 VDD_esc1 VSS_esc2

        MP1 Y A0 VDD_esc1 VDD_esc1 pmos l=0.14u w=1.05u m=1
        MN1 Y A0 N$5 VSS_esc2 nmos l=0.14u w=0.77u m=1
        MN2 N$5 A1 VSS_esc2 VSS_esc2 nmos l=0.14u w=0.77u m=1
        MP2 Y A1 VDD_esc1 VDD_esc1 pmos l=0.14u w=1.05u m=1
.ends nand02

*
* Component pathname : $GDKGATES/buf02
*
.subckt buf02  Y A VDD_esc1 VSS_esc2

        MP1 N$5 A VDD_esc1 VDD_esc1 pmos l=0.14u w=0.77u m=1
        MN1 N$5 A VSS_esc2 VSS_esc2 nmos l=0.14u w=0.35u m=1
        MP2 Y N$5 VDD_esc1 VDD_esc1 pmos l=0.14u w=1.54u m=1
        MN2 Y N$5 VSS_esc2 VSS_esc2 nmos l=0.14u w=0.77u m=1
.ends buf02

*
* Component pathname : $GDKGATES/or03
*
.subckt or03  Y A0 A1 A2 VDD_esc1 VSS_esc2

        MN3 N$7 A0 VSS_esc2 VSS_esc2 nmos l=0.14u w=0.42u m=1
        MP3 N$7 A2 N$3 VDD_esc1 pmos l=0.14u w=2.24u m=1
        MP4 Y N$7 VDD_esc1 VDD_esc1 pmos l=0.14u w=0.77u m=1
        MN2 N$7 A1 VSS_esc2 VSS_esc2 nmos l=0.14u w=0.42u m=1
        MN1 N$7 A2 VSS_esc2 VSS_esc2 nmos l=0.14u w=0.42u m=1
        MP2 N$3 A1 N$1 VDD_esc1 pmos l=0.14u w=2.24u m=1
        MP1 N$1 A0 VDD_esc1 VDD_esc1 pmos l=0.14u w=2.24u m=1
        MN4 Y N$7 VSS_esc2 VSS_esc2 nmos l=0.14u w=0.35u m=1
.ends or03

*
* Component pathname : $GDKGATES/nor02
*
.subckt nor02  Y A0 A1 VDD_esc1 VSS_esc2

        MN2 Y A0 VSS_esc2 VSS_esc2 nmos l=0.14u w=0.35u m=1
        MN1 Y A1 VSS_esc2 VSS_esc2 nmos l=0.14u w=0.35u m=1
        MP2 Y A1 N$1 VDD_esc1 pmos l=0.14u w=1.19u m=1
        MP1 N$1 A0 VDD_esc1 VDD_esc1 pmos l=0.14u w=1.19u m=1
.ends nor02

*
* Component pathname : $GDKGATES/nor03
*
.subckt nor03  Y A0 A1 A2 VDD_esc1 VSS_esc2

        MP3 Y A2 N$3 VDD_esc1 pmos l=0.14u w=1.68u m=1
        MN2 Y A1 VSS_esc2 VSS_esc2 nmos l=0.14u w=0.42u m=1
        MN1 Y A2 VSS_esc2 VSS_esc2 nmos l=0.14u w=0.42u m=1
        MP2 N$3 A1 N$1 VDD_esc1 pmos l=0.14u w=1.68u m=1
        MP1 N$1 A0 VDD_esc1 VDD_esc1 pmos l=0.14u w=1.68u m=1
        MN3 Y A0 VSS_esc2 VSS_esc2 nmos l=0.14u w=0.42u m=1
.ends nor03

*
* Component pathname : $GDKGATES/nor02ii
*
.subckt nor02ii  Y A0 A1 VDD_esc1 VSS_esc2

        MN1 N$4 A1 VSS_esc2 VSS_esc2 nmos l=0.14u w=0.35u m=1
        MP1 N$4 A1 VDD_esc1 VDD_esc1 pmos l=0.14u w=0.77u m=1
        MN4 Y A0 VSS_esc2 VSS_esc2 nmos l=0.14u w=0.35u m=1
        MN2 Y N$4 VSS_esc2 VSS_esc2 nmos l=0.14u w=0.35u m=1
        MP4 Y N$4 N$1 VDD_esc1 pmos l=0.14u w=1.19u m=1
        MP2 N$1 A0 VDD_esc1 VDD_esc1 pmos l=0.14u w=1.19u m=1
.ends nor02ii

*
* Component pathname : $GDKGATES/aoi21
*
.subckt aoi21  Y A0 A1 B0 VDD_esc1 VSS_esc2

        M_I$11 Y A0 N$2 VSS_esc2 nmos l=0.14u w=0.77u m=1
        M_I$7 Y B0 N$1 VDD_esc1 pmos l=0.14u w=1.19u m=1
        M_I$6 N$1 A1 VDD_esc1 VDD_esc1 pmos l=0.14u w=1.19u m=1
        M_I$5 N$1 A0 VDD_esc1 VDD_esc1 pmos l=0.14u w=1.19u m=1
        M_I$4 Y B0 VSS_esc2 VSS_esc2 nmos l=0.14u w=0.35u m=1
        M_I$12 N$2 A1 VSS_esc2 VSS_esc2 nmos l=0.14u w=0.77u m=1
.ends aoi21

*
* Component pathname : $GDKGATES/aoi22
*
.subckt aoi22  Y A0 A1 B0 B1 VDD_esc1 VSS_esc2

        M_I$13 Y B1 N$6 VDD_esc1 pmos l=0.14u w=1.19u m=1
        M_I$12 N$1 A1 VSS_esc2 VSS_esc2 nmos l=0.14u w=0.77u m=1
        M_I$11 Y A0 N$1 VSS_esc2 nmos l=0.14u w=0.77u m=1
        M_I$14 Y B0 N$2 VSS_esc2 nmos l=0.14u w=0.77u m=1
        M_I$7 Y B0 N$6 VDD_esc1 pmos l=0.14u w=1.19u m=1
        M_I$6 N$6 A1 VDD_esc1 VDD_esc1 pmos l=0.14u w=1.19u m=1
        M_I$5 N$6 A0 VDD_esc1 VDD_esc1 pmos l=0.14u w=1.19u m=1
        M_I$4 N$2 B1 VSS_esc2 VSS_esc2 nmos l=0.14u w=0.77u m=1
.ends aoi22

*
* Component pathname : $GDKGATES/and02
*
.subckt and02  Y A0 A1 VDD_esc1 VSS_esc2

        MN3 Y N$1 VSS_esc2 VSS_esc2 nmos l=0.14u w=0.35u m=1
        MN2 N$6 A1 VSS_esc2 VSS_esc2 nmos l=0.14u w=0.77u m=1
        MN1 N$1 A0 N$6 VSS_esc2 nmos l=0.14u w=0.77u m=1
        MP3 Y N$1 VDD_esc1 VDD_esc1 pmos l=0.14u w=0.77u m=1
        MP2 N$1 A1 VDD_esc1 VDD_esc1 pmos l=0.14u w=1.05u m=1
        MP1 N$1 A0 VDD_esc1 VDD_esc1 pmos l=0.14u w=1.05u m=1
.ends and02

*
* Component pathname : $GDKGATES/oai21
*
.subckt oai21  Y A0 A1 B0 VDD_esc1 VSS_esc2

        MN1 Y A0 N$7 VSS_esc2 nmos l=0.14u w=0.77u m=1
        MP3 Y B0 VDD_esc1 VDD_esc1 pmos l=0.14u w=1.05u m=1
        MP2 Y A1 N$6 VDD_esc1 pmos l=0.14u w=2.03u m=1
        MP1 N$6 A0 VDD_esc1 VDD_esc1 pmos l=0.14u w=2.03u m=1
        MN2 Y A1 N$7 VSS_esc2 nmos l=0.14u w=0.77u m=1
        MN3 N$7 B0 VSS_esc2 VSS_esc2 nmos l=0.14u w=0.77u m=1
.ends oai21

*
* Component pathname : $PYXIS_SPT/digicdesign/ProjectWrapper
*
.subckt ProjectWrapper  Complete Pass RegOut[31] RegOut[30] RegOut[29] RegOut[28]
+ RegOut[27] RegOut[26] RegOut[25] RegOut[24] RegOut[23] RegOut[22] RegOut[21]
+ RegOut[20] RegOut[19] RegOut[18] RegOut[17] RegOut[16] RegOut[15] RegOut[14]
+ RegOut[13] RegOut[12] RegOut[11] RegOut[10] RegOut[9] RegOut[8] RegOut[7]
+ RegOut[6] RegOut[5] RegOut[4] RegOut[3] RegOut[2] RegOut[1] RegOut[0]
+ A[15] A[14] A[13] A[12] A[11] A[10] A[9] A[8] A[7] A[6] A[5] A[4] A[3]
+ A[2] A[1] A[0] B[15] B[14] B[13] B[12] B[11] B[10] B[9] B[8] B[7] B[6]
+ B[5] B[4] B[3] B[2] B[1] B[0] clk reset StartTest WE

        X_ix4473 nx4472 nx2671 VDD VSS inv01
        X_ix4511 nx4510 nx5595 VDD VSS inv01
        X_ix4457 nx4456 nx2679 VDD VSS inv01
        X_ix4465 nx1041 nx5561 VDD VSS inv01
        X_ix4441 nx4440 nx2687 VDD VSS inv01
        X_ix4449 nx1039 nx5529 VDD VSS inv01
        X_ix4425 nx4424 nx2695 VDD VSS inv01
        X_ix4433 nx1037 nx5485 VDD VSS inv01
        X_ix4409 nx4408 nx2703 VDD VSS inv01
        X_ix4417 nx1035 nx5437 VDD VSS inv01
        X_ix4393 nx4392 nx2711 VDD VSS inv01
        X_ix4401 nx1033 nx5389 VDD VSS inv01
        X_ix4377 nx4376 nx2719 VDD VSS inv01
        X_ix4385 nx1031 nx5319 VDD VSS inv01
        X_ix4361 nx4360 nx2727 VDD VSS inv01
        X_ix4369 nx1029 nx5244 VDD VSS inv01
        X_ix4345 nx4344 nx2735 VDD VSS inv01
        X_ix4353 nx1027 nx5170 VDD VSS inv01
        X_ix4329 nx4328 nx2743 VDD VSS inv01
        X_ix4337 nx1025 nx5085 VDD VSS inv01
        X_ix4313 nx4312 nx2751 VDD VSS inv01
        X_ix4321 nx1023 nx4999 VDD VSS inv01
        X_ix4297 nx4296 nx2759 VDD VSS inv01
        X_ix4305 nx1021 nx4889 VDD VSS inv01
        X_ix4281 nx4280 nx2767 VDD VSS inv01
        X_ix4289 nx1019 nx4763 VDD VSS inv01
        X_ix4265 nx4264 nx2775 VDD VSS inv01
        X_ix4273 nx1017 nx4665 VDD VSS inv01
        X_ix4249 nx4248 nx2783 VDD VSS inv01
        X_ix4257 nx1015 nx4507 VDD VSS inv01
        X_ix4233 nx4232 nx2791 VDD VSS inv01
        X_ix4241 nx1013 nx4347 VDD VSS inv01
        X_ix5596 nx5595 nx2671 nx4508 VDD VSS xnor2
        X_ix5562 nx5561 nx2679 nx4462 VDD VSS xnor2
        X_ix5530 nx5529 nx2687 nx4446 VDD VSS xnor2
        X_ix5486 nx5485 nx2695 nx4430 VDD VSS xnor2
        X_ix5438 nx5437 nx2703 nx4414 VDD VSS xnor2
        X_ix5390 nx5389 nx2711 nx4398 VDD VSS xnor2
        X_ix5320 nx5319 nx2719 nx4382 VDD VSS xnor2
        X_ix5245 nx5244 nx2727 nx4366 VDD VSS xnor2
        X_ix5171 nx5170 nx2735 nx4350 VDD VSS xnor2
        X_ix5086 nx5085 nx2743 nx4334 VDD VSS xnor2
        X_ix5000 nx4999 nx2751 nx4318 VDD VSS xnor2
        X_ix4890 nx4889 nx2759 nx4302 VDD VSS xnor2
        X_ix4764 nx4763 nx2767 nx4286 VDD VSS xnor2
        X_ix4666 nx4665 nx2775 nx4270 VDD VSS xnor2
        X_ix4508 nx4507 nx2783 nx4254 VDD VSS xnor2
        X_ix4348 nx4347 nx2791 nx4238 VDD VSS xnor2
        X_ix4785 nx4784 nx5778 MISR_out_31 nx5584 VDD VSS and03
        X_ix4849 nx4848 nx5683 nx5678 MISR_out_8 MISR_out_7 VDD VSS and04
        X_ix4861 nx4860 MISR_out_6 MISR_out_5 nx5653 nx5648 VDD VSS and04
        X_ix4839 nx4838 nx5703 nx5698 nx5693 nx5688 VDD VSS and04
        X_ix4801 nx4800 MISR_out_26 nx5992 nx5753 MISR_out_23 VDD VSS and04
        X_ix2200 nx2199 nx4700 MISR_out_9 nx6012 VDD VSS mux21
        X_ix2190 nx2189 nx4694 MISR_out_10 nx6012 VDD VSS mux21
        X_ix2260 nx2259 nx4736 MISR_out_3 nx6010 VDD VSS mux21
        X_ix2250 nx2249 nx4730 MISR_out_4 nx6010 VDD VSS mux21
        X_ix2310 nx2309 nx4766 MISR_out_30 nx6010 VDD VSS mux21
        X_ix2290 nx2289 nx4754 MISR_out_0 nx6010 VDD VSS mux21
        X_ix2160 nx2159 nx4676 MISR_out_13 nx6012 VDD VSS mux21
        X_ix2150 nx2149 nx4670 MISR_out_14 nx6012 VDD VSS mux21
        X_ix2270 nx2269 nx4742 MISR_out_2 nx6010 VDD VSS mux21
        X_ix2280 nx2279 nx4748 MISR_out_1 nx6010 VDD VSS mux21
        X_ix2010 nx2009 nx4580 MISR_out_28 nx6014 VDD VSS mux21
        X_ix2030 nx2029 nx4592 MISR_out_26 nx6014 VDD VSS mux21
        X_ix2060 nx2059 nx4614 MISR_out_23 nx6014 VDD VSS mux21
        X_MISR0_reg_internal_reg_11 MISR_out_11 nx5688 clk nx2179 nx5822
+ VDD VSS dffr
        X_MISR0_reg_internal_reg_30 MISR_out_30 nx5584 clk nx2309 nx5820
+ VDD VSS dffr
        X_MISR0_reg_internal_reg_0 MISR_out_0 nx5633 clk nx2289 nx5820 VDD
+ VSS dffr
        X_MISR0_reg_internal_reg_13 MISR_out_13 nx5698 clk nx2159 nx5822
+ VDD VSS dffr
        X_MISR0_reg_internal_reg_2 MISR_out_2 nx5643 clk nx2269 nx5822 VDD
+ VSS dffr
        X_MISR0_reg_internal_reg_1 MISR_out_1 nx5638 clk nx2279 nx5822 VDD
+ VSS dffr
        X_MISR0_reg_internal_reg_26 MISR_out_26 nx5780 clk nx2029 nx5824
+ VDD VSS dffr
        X_MISR0_reg_internal_reg_24 MISR_out_24 nx5753 clk nx2049 nx5824
+ VDD VSS dffr
        X_MISR0_reg_internal_reg_16 MISR_out_16 nx5713 clk nx2129 nx5824
+ VDD VSS dffr
        X_MISR0_reg_internal_reg_17 MISR_out_17 nx5718 clk nx2119 nx5824
+ VDD VSS dffr
        X_MISR0_reg_internal_reg_15 MISR_out_15 nx5708 clk nx2139 nx5822
+ VDD VSS dffr
        X_MISR0_reg_internal_reg_22 MISR_out_22 nx5743 clk nx2069 nx5824
+ VDD VSS dffr
        X_MISR0_reg_internal_reg_19 MISR_out_19 nx5728 clk nx2099 nx5824
+ VDD VSS dffr
        X_ix5787 nx5786 nx5723 nx5718 nx5713 nx5708 VDD VSS or04
        X_ix5823 nx5824 reset VDD VSS inv02
        X_ix6011 nx6012 nx5996 VDD VSS inv02
        X_ix6013 nx6014 nx5996 VDD VSS inv02
        X_ix4523 nx4522 nx5592 VDD VSS inv01
        X_ix4549 nx4548 nx5623 VDD VSS inv01
        X_ix5991 nx5992 MISR_out_25 VDD VSS inv01
        X_MISR0_reg_internal_reg_12 MISR_out_12 nx5693 clk nx2169 nx5822
+ VDD VSS dffs
        X_MISR0_reg_internal_reg_10 MISR_out_10 nx5683 clk nx2189 nx5822
+ VDD VSS dffs
        X_MISR0_reg_internal_reg_9 MISR_out_9 nx5678 clk nx2199 nx5822 VDD
+ VSS dffs
        X_MISR0_reg_internal_reg_4 MISR_out_4 nx5653 clk nx2249 nx5822 VDD
+ VSS dffs
        X_MISR0_reg_internal_reg_3 MISR_out_3 nx5648 clk nx2259 nx5822 VDD
+ VSS dffs
        X_MISR0_reg_internal_reg_14 MISR_out_14 nx5703 clk nx2149 nx5822
+ VDD VSS dffs
        X_MISR0_reg_internal_reg_28 MISR_out_28 nx5773 clk nx2009 nx5824
+ VDD VSS dffs
        X_MISR0_reg_internal_reg_18 MISR_out_18 nx5723 clk nx2109 nx5824
+ VDD VSS dffs
        X_MISR0_reg_internal_reg_21 MISR_out_21 nx5738 clk nx2079 nx5824
+ VDD VSS dffs
        X_MISR0_reg_internal_reg_20 MISR_out_20 nx5782 clk nx2089 nx5824
+ VDD VSS dffs
        X_ix2180 nx2179 nx4688 MISR_out_11 nx6012 VDD VSS mux21
        X_ix2170 nx2169 nx4682 MISR_out_12 nx6012 VDD VSS mux21
        X_ix2050 nx2049 nx4608 MISR_out_24 nx6014 VDD VSS mux21
        X_ix2130 nx2129 nx4658 MISR_out_16 nx6012 VDD VSS mux21
        X_ix2120 nx2119 nx4652 MISR_out_17 nx6012 VDD VSS mux21
        X_ix2140 nx2139 nx4664 MISR_out_15 nx6012 VDD VSS mux21
        X_ix2110 nx2109 nx4646 MISR_out_18 nx6012 VDD VSS mux21
        X_ix2100 nx2099 nx4640 MISR_out_19 nx6012 VDD VSS mux21
        X_ix2080 nx2079 nx4626 MISR_out_21 nx6014 VDD VSS mux21
        X_ix2090 nx2089 nx4632 MISR_out_20 nx6014 VDD VSS mux21
        X_ix2070 nx2069 nx4620 MISR_out_22 nx6014 VDD VSS mux21
        X_ix4609 nx4608 nx5633 nx5758 VDD VSS xor2
        X_ix4641 nx4640 nx5633 nx5733 VDD VSS xor2
        X_ix5789 nx5788 nx4838 nx4848 nx4860 nx4870 VDD VSS nand04
        X_ix2656 nx2655 nx4784 nx5773 MISR_out_27 nx4800 VDD VSS nand04
        X_ix5785 nx5784 nx5743 nx5738 MISR_out_20 nx5728 VDD VSS nand04
        X_ix4575 nx4574 nx5620 nx5626 VDD VSS xnor2
        X_ix5624 nx5623 nx5592 nx4546 VDD VSS xnor2
        X_ix4871 nx4870 nx5643 nx5638 MISR_out_0 nx5994 VDD VSS nor04
        X_ix4877 nx4876 nx2655 nx5784 nx5786 nx5788 VDD VSS nor04
        X_ix4879 nx4878 nx4876 Pass VDD VSS or02
        X_ix3603 nx3602 nx6122 nx6102 nx5408 nx5451 nx5404 VDD VSS oai32
        X_ix3667 nx3666 nx6122 nx6110 nx5457 nx5502 nx5453 VDD VSS oai32
        X_ix3711 nx3710 nx6132 nx6110 nx5499 nx5492 nx5495 VDD VSS oai32
        X_ix4479 nx4478 nx6132 nx6118 nx5541 nx5569 nx5537 VDD VSS oai32
        X_ix4567 nx4566 nx6134 nx6138 nx5988 nx5602 nx5990 VDD VSS oai32
        X_ix4487 nx4486 nx6122 nx6128 nx5549 nx5543 nx5545 VDD VSS oai32
        X_ix4537 nx4536 nx6122 nx6136 nx5580 nx5608 nx5576 VDD VSS oai32
        X_ix5949 nx5950 nx6118 VDD VSS inv01
        X_ix5961 nx5962 nx6122 VDD VSS inv01
        X_ix5452 nx5451 nx3526 VDD VSS inv01
        X_ix5503 nx5502 nx3602 VDD VSS inv01
        X_ix5969 nx5970 nx6132 VDD VSS inv01
        X_ix5570 nx5569 nx3710 VDD VSS inv01
        X_ix3651 nx3650 nx3602 nx5453 VDD VSS xnor2
        X_ix4501 nx4500 nx5572 nx4498 VDD VSS xnor2
        X_ix5496 nx5495 nx5497 nx5499 VDD VSS xnor2
        X_ix5538 nx5537 nx5539 nx5541 VDD VSS xnor2
        X_ix3747 nx3746 nx3710 nx5537 VDD VSS xnor2
        X_ix4539 nx4538 nx5605 nx4536 VDD VSS xnor2
        X_ix4541 nx4540 nx5602 nx4538 VDD VSS xnor2
        X_ix5546 nx5545 nx5547 nx5549 VDD VSS xnor2
        X_ix5542 nx5541 nx5543 nx5545 VDD VSS xnor2
        X_ix5577 nx5576 nx5578 nx5580 VDD VSS xnor2
        X_ix4499 nx4498 nx4486 nx5576 VDD VSS xnor2
        X_ix5508 nx5507 nx6124 nx6120 VDD VSS or02
        X_ix5407 nx5406 nx6124 nx6104 VDD VSS or02
        X_ix5456 nx5455 nx6124 nx6112 VDD VSS or02
        X_ix5573 nx5572 nx6134 nx6130 VDD VSS or02
        X_ix5498 nx5497 nx6134 nx6112 VDD VSS or02
        X_ix5540 nx5539 nx6134 nx6120 VDD VSS or02
        X_ix5606 nx5605 nx6134 nx6138 VDD VSS or02
        X_ix5548 nx5547 nx6126 nx6130 VDD VSS or02
        X_ix5579 nx5578 nx6126 nx6138 VDD VSS or02
        X_ix5989 nx5990 nx4538 VDD VSS inv01
        X_ix5987 nx5988 nx4536 VDD VSS inv01
        X_ix5609 nx5608 nx4486 VDD VSS inv01
        X_ix5544 nx5543 nx5962 nx5950 nx3698 nx3666 nx3700 VDD VSS aoi32
        X_ix5603 nx5602 nx5970 nx5958 nx4498 nx4478 nx4500 VDD VSS aoi32
        X_ix4503 nx4502 nx4478 nx4500 VDD VSS xor2
        X_ix3753 nx3752 nx5492 nx5495 VDD VSS xor2
        X_ix3701 nx3700 nx5507 nx3698 VDD VSS xnor2
        X_ix5500 nx5499 nx3666 nx3700 VDD VSS xnor2
        X_ix5405 nx5404 nx5406 nx5408 VDD VSS xnor2
        X_ix3587 nx3586 nx3526 nx5404 VDD VSS xnor2
        X_ix5454 nx5453 nx5455 nx5457 VDD VSS xnor2
        X_ix3535 nx3534 nx6114 nx6102 nx5348 nx5341 nx5344 VDD VSS oai32
        X_ix3675 nx3674 nx6114 nx6118 nx5465 nx5459 nx5461 VDD VSS oai32
        X_ix3551 nx3550 nx6098 nx6118 nx5366 nx5359 nx5362 VDD VSS oai32
        X_ix3543 nx3542 nx6106 nx6110 nx5357 nx5350 nx5353 VDD VSS oai32
        X_ix3619 nx3618 nx6106 nx6118 nx5420 nx5468 nx5416 VDD VSS oai32
        X_ix3727 nx3726 nx6114 nx6128 nx5515 nx5552 nx5511 VDD VSS oai32
        X_ix3479 nx3478 nx6082 nx6128 nx5305 nx5378 nx5301 VDD VSS oai32
        X_ix3735 nx3734 nx6106 nx6136 nx5523 nx5517 nx5519 VDD VSS oai32
        X_ix3559 nx3558 nx6090 nx6128 nx5375 nx5368 nx5371 VDD VSS oai32
        X_ix3635 nx3634 nx6090 nx6136 nx5432 nx5480 nx5428 VDD VSS oai32
        X_ix5340 nx5339 nx5341 nx5344 VDD VSS xnor2
        X_ix5462 nx5461 nx5463 nx5465 VDD VSS xnor2
        X_ix5458 nx5457 nx5459 nx5461 VDD VSS xnor2
        X_ix5363 nx5362 nx5364 nx5366 VDD VSS xnor2
        X_ix5358 nx5357 nx5359 nx5362 VDD VSS xnor2
        X_ix5354 nx5353 nx5355 nx5357 VDD VSS xnor2
        X_ix5349 nx5348 nx5350 nx5353 VDD VSS xnor2
        X_ix5417 nx5416 nx5418 nx5420 VDD VSS xnor2
        X_ix3579 nx3578 nx3542 nx5416 VDD VSS xnor2
        X_ix5512 nx5511 nx5513 nx5515 VDD VSS xnor2
        X_ix3699 nx3698 nx3674 nx5511 VDD VSS xnor2
        X_ix3737 nx3736 nx5555 nx3734 VDD VSS xnor2
        X_ix5550 nx5549 nx3726 nx3736 VDD VSS xnor2
        X_ix5365 nx5364 nx6100 nx6120 VDD VSS or02
        X_ix5356 nx5355 nx6108 nx6112 VDD VSS or02
        X_ix5419 nx5418 nx6108 nx6120 VDD VSS or02
        X_ix5514 nx5513 nx6116 nx6130 VDD VSS or02
        X_ix5556 nx5555 nx6116 nx6138 VDD VSS or02
        X_ix5304 nx5303 nx6084 nx6130 VDD VSS or02
        X_ix5384 nx5383 nx6084 nx6138 VDD VSS or02
        X_ix5522 nx5521 nx6108 nx6138 VDD VSS or02
        X_ix5472 nx5471 nx6108 nx6130 VDD VSS or02
        X_ix5374 nx5373 nx6092 nx6130 VDD VSS or02
        X_ix5431 nx5430 nx6092 nx6138 VDD VSS or02
        X_ix5425 nx5424 nx6100 nx6130 VDD VSS or02
        X_ix5478 nx5477 nx6100 nx6138 VDD VSS or02
        X_ix5941 nx5942 nx6110 VDD VSS inv01
        X_ix5469 nx5468 nx3542 VDD VSS inv01
        X_ix5553 nx5552 nx3674 VDD VSS inv01
        X_ix5953 nx5954 nx6114 VDD VSS inv01
        X_ix5379 nx5378 nx3378 VDD VSS inv01
        X_ix5921 nx5922 nx6082 VDD VSS inv01
        X_ix5945 nx5946 nx6106 VDD VSS inv01
        X_ix5481 nx5480 nx3558 VDD VSS inv01
        X_ix5957 nx5958 nx6128 VDD VSS inv01
        X_ix3627 nx3626 nx5474 VDD VSS inv01
        X_ix5460 nx5459 nx5954 nx5942 nx3578 nx3534 nx3580 VDD VSS aoi32
        X_ix5581 nx5580 nx5954 nx5966 nx3734 nx3726 nx3736 VDD VSS aoi32
        X_ix5433 nx5432 nx5922 nx5966 nx3486 nx3478 nx3488 VDD VSS aoi32
        X_ix5518 nx5517 nx5946 nx5958 nx3638 nx3618 nx3640 VDD VSS aoi32