* File: ALU_16Bit.pex.netlist.pex
* Created: Sat Nov  9 15:44:46 2019
* Program "Calibre xRC"
* Version "v2013.4_26.18"
* Nominal Temperature: 27C
* Circuit Temperature: 27C
* 
.subckt PM_ALU_16BIT_X_IX25.N$5 4 8 10 12
c0 30 0 0.08232f
c1 28 0 0.465272f
c2 27 0 0.056672f
c3 26 0 0.0384636f
c4 25 0 0.0895501f
c5 24 0 0.156251f
c6 22 0 0.038535f
c7 21 0 0.211759f
c8 20 0 0.061178f
c9 16 0 0.207578f
c10 14 0 0.032466f
c11 13 0 0.136579f
c12 8 0 0.941693f
c13 4 0 0.317572f
r14 27 34 0.0240683
r15 27 28 0.990476
r16 25 34 0.02063
r17 25 26 0.186667
r18 24 26 0.0446983
r19 23 30 0.0451795
r20 23 24 0.329524
r21 21 28 0.0446983
r22 21 22 0.36
r23 19 22 0.0446983
r24 19 20 0.129524
r25 14 20 0.0425897
r26 14 16 0.12
r27 13 41 8.71929
r28 13 39 8.71929
r29 13 34 11.07
r30 13 30 15.61
r31 13 16 5.17667
r32 12 13 1.29176
r33 10 13 4.02
r34 8 41 247.5
r35 4 39 67.5
.ends

.subckt PM_ALU_16BIT_X_IX59.N$5 4 8 10 12
c0 30 0 0.08064f
c1 28 0 0.461058f
c2 27 0 0.056f
c3 26 0 0.03801f
c4 25 0 0.088496f
c5 24 0 0.157463f
c6 22 0 0.040152f
c7 21 0 0.211441f
c8 20 0 0.0642876f
c9 16 0 0.2182f
c10 14 0 0.0336f
c11 13 0 0.1365f
c12 8 0 0.939662f
c13 4 0 0.321783f
r14 27 34 0.0240683
r15 27 28 0.990476
r16 25 34 0.02063
r17 25 26 0.186667
r18 24 26 0.0446983
r19 23 30 0.0451795
r20 23 24 0.329524
r21 21 28 0.0446983
r22 21 22 0.36
r23 19 22 0.0446983
r24 19 20 0.129524
r25 14 20 0.0425897
r26 14 16 0.12
r27 13 41 8.71929
r28 13 39 8.71929
r29 13 34 11.07
r30 13 30 15.61
r31 13 16 5.17667
r32 12 13 1.29176
r33 10 13 4.02
r34 8 41 247.5
r35 4 39 67.5
.ends

.subckt PM_ALU_16BIT_X_IX413.N$7 4 8 10 12
c0 37 0 0.0728f
c1 35 0 0.02121f
c2 27 0 0.088496f
c3 26 0 0.240704f
c4 22 0 0.206452f
c5 20 0 0.03192f
c6 18 0 0.205155f
c7 17 0 0.03801f
c8 16 0 0.12722f
c9 15 0 0.418084f
c10 13 0 0.1365f
c11 8 0 0.612468f
c12 4 0 0.747763f
r13 28 35 0.0338756
r14 27 37 0.0451795
r15 27 28 0.186667
r16 25 35 0.00880368
r17 25 26 0.506667
r18 20 26 0.0425897
r19 20 22 0.12
r20 18 29 0.106667
r21 16 35 0.0338756
r22 16 17 0.266667
r23 15 17 0.0446983
r24 14 29 0.0046983
r25 14 15 0.88
r26 13 40 0.147922
r27 13 45 8.71929
r28 13 43 8.71929
r29 13 37 11.07
r30 13 18 7.805
r31 13 22 5.17667
r32 12 13 1.29176
r33 10 40 1.67935
r34 8 45 130
r35 4 43 185
.ends

.subckt PM_ALU_16BIT_X_IX413.N$4 4 8 10 12
c0 39 0 0.06818f
c1 37 0 0.191452f
c2 34 0 0.136436f
c3 32 0 0.075658f
c4 31 0 0.271784f
c5 29 0 0.041202f
c6 28 0 0.1779f
c7 27 0 0.0751446f
c8 26 0 0.03416f
c9 23 0 0.03801f
c10 17 0 0.36482f
c11 15 0 0.03192f
c12 14 0 0.18438f
c13 8 0 0.70316f
c14 4 0 0.317154f
r15 42 58 1.32058
r16 36 39 0.03
r17 36 37 0.0351795
r18 31 36 0.0158951
r19 30 31 0.573333
r20 28 30 0.0446983
r21 28 29 0.293333
r22 27 29 0.0446983
r23 26 34 0.0451795
r24 26 27 0.146667
r25 23 37 0.4
r26 20 23 0.0446983
r27 20 32 0.16
r28 15 32 0.0451795
r29 15 17 0.24
r30 14 58 0.665455
r31 14 44 3.87454
r32 14 39 11.07
r33 14 34 7.805
r34 14 17 3.106
r35 13 42 2.5258
r36 12 13 4.81284
r37 10 14 1.82727
r38 6 14 11.6236
r39 6 8 187.5
r40 2 44 3.77626
r41 2 4 52.5
.ends

.subckt PM_ALU_16BIT_X_IX133.N$7 4 8 10 12
c0 37 0 0.0728f
c1 35 0 0.02121f
c2 27 0 0.088496f
c3 26 0 0.240704f
c4 22 0 0.206452f
c5 20 0 0.03192f
c6 18 0 0.205435f
c7 17 0 0.03801f
c8 16 0 0.12722f
c9 15 0 0.418084f
c10 13 0 0.1365f
c11 8 0 0.612468f
c12 4 0 0.747596f
r13 28 35 0.0338756
r14 27 37 0.0451795
r15 27 28 0.186667
r16 25 35 0.00880368
r17 25 26 0.506667
r18 20 26 0.0425897
r19 20 22 0.12
r20 18 29 0.106667
r21 16 35 0.0338756
r22 16 17 0.266667
r23 15 17 0.0446983
r24 14 29 0.0046983
r25 14 15 0.88
r26 13 40 0.147922
r27 13 45 8.71929
r28 13 43 8.71929
r29 13 37 11.07
r30 13 18 7.805
r31 13 22 5.17667
r32 12 13 1.29176
r33 10 40 1.67935
r34 8 45 130
r35 4 43 185
.ends

.subckt PM_ALU_16BIT_X_IX133.N$4 4 8 10 12
c0 39 0 0.07266f
c1 37 0 0.194812f
c2 34 0 0.127492f
c3 32 0 0.075658f
c4 31 0 0.285333f
c5 29 0 0.03801f
c6 28 0 0.183024f
c7 27 0 0.069323f
c8 26 0 0.03192f
c9 23 0 0.03801f
c10 17 0 0.36482f
c11 15 0 0.03192f
c12 14 0 0.184745f
c13 8 0 0.701172f
c14 4 0 0.31913f
r15 42 58 1.32058
r16 36 39 0.03
r17 36 37 0.0351795
r18 31 36 0.0158951
r19 30 31 0.573333
r20 28 30 0.0446983
r21 28 29 0.293333
r22 27 29 0.0446983
r23 26 34 0.0451795
r24 26 27 0.146667
r25 23 37 0.4
r26 20 23 0.0446983
r27 20 32 0.16
r28 15 32 0.0451795
r29 15 17 0.24
r30 14 58 0.665455
r31 14 44 3.87454
r32 14 39 11.07
r33 14 34 7.805
r34 14 17 3.106
r35 13 42 2.5258
r36 12 13 4.81284
r37 10 14 1.82727
r38 6 14 11.6236
r39 6 8 187.5
r40 2 44 3.77626
r41 2 4 52.5
.ends

.subckt PM_ALU_16BIT_X_IX173.N$7 4 8 10 12
c0 37 0 0.073094f
c1 35 0 0.02121f
c2 27 0 0.088496f
c3 26 0 0.241628f
c4 22 0 0.206452f
c5 20 0 0.03192f
c6 18 0 0.204213f
c7 17 0 0.03801f
c8 16 0 0.12722f
c9 15 0 0.419002f
c10 13 0 0.136794f
c11 8 0 0.612832f
c12 4 0 0.748153f
r13 28 35 0.0338756
r14 27 37 0.0451795
r15 27 28 0.186667
r16 25 35 0.00880368
r17 25 26 0.506667
r18 20 26 0.0425897
r19 20 22 0.12
r20 18 29 0.106667
r21 16 35 0.0338756
r22 16 17 0.266667
r23 15 17 0.0446983
r24 14 29 0.0046983
r25 14 15 0.88
r26 13 40 0.147922
r27 13 45 8.71929
r28 13 43 8.71929
r29 13 37 11.07
r30 13 18 7.805
r31 13 22 5.17667
r32 12 13 1.29176
r33 10 40 1.67935
r34 8 45 130
r35 4 43 185
.ends

.subckt PM_ALU_16BIT_X_IX173.N$4 4 8 10 12
c0 39 0 0.07028f
c1 37 0 0.198374f
c2 34 0 0.12794f
c3 32 0 0.0757462f
c4 31 0 0.272708f
c5 29 0 0.03801f
c6 28 0 0.18126f
c7 27 0 0.069323f
c8 26 0 0.03192f
c9 23 0 0.038892f
c10 17 0 0.364742f
c11 15 0 0.033096f
c12 14 0 0.184919f
c13 8 0 0.700808f
c14 4 0 0.317572f
r15 42 58 1.32058
r16 36 39 0.03
r17 36 37 0.0351795
r18 31 36 0.0158951
r19 30 31 0.573333
r20 28 30 0.0446983
r21 28 29 0.293333
r22 27 29 0.0446983
r23 26 34 0.0451795
r24 26 27 0.146667
r25 23 37 0.4
r26 20 23 0.0446983
r27 20 32 0.16
r28 15 32 0.0451795
r29 15 17 0.24
r30 14 58 0.665455
r31 14 44 3.87454
r32 14 39 11.07
r33 14 34 7.805
r34 14 17 3.106
r35 13 42 2.5258
r36 12 13 4.81284
r37 10 14 1.82727
r38 6 14 11.6236
r39 6 8 187.5
r40 2 44 3.77626
r41 2 4 52.5
.ends

.subckt PM_ALU_16BIT_X_IX293.N$7 4 8 10 12
c0 37 0 0.0728f
c1 35 0 0.022722f
c2 27 0 0.0903272f
c3 26 0 0.251562f
c4 22 0 0.216242f
c5 20 0 0.03332f
c6 18 0 0.203757f
c7 17 0 0.03801f
c8 16 0 0.13058f
c9 15 0 0.422284f
c10 13 0 0.1365f
c11 8 0 0.613588f
c12 4 0 0.749107f
r13 28 35 0.0338756
r14 27 37 0.0451795
r15 27 28 0.186667
r16 25 35 0.00880368
r17 25 26 0.506667
r18 20 26 0.0425897
r19 20 22 0.12
r20 18 29 0.106667
r21 16 35 0.0338756
r22 16 17 0.266667
r23 15 17 0.0446983
r24 14 29 0.0046983
r25 14 15 0.88
r26 13 40 0.147922
r27 13 45 8.71929
r28 13 43 8.71929
r29 13 37 11.07
r30 13 18 7.805
r31 13 22 5.17667
r32 12 13 1.29176
r33 10 40 1.67935
r34 8 45 130
r35 4 43 185
.ends

.subckt PM_ALU_16BIT_X_IX293.N$4 4 8 10 12
c0 39 0 0.071876f
c1 37 0 0.192023f
c2 34 0 0.129012f
c3 32 0 0.0765652f
c4 31 0 0.292071f
c5 29 0 0.0386232f
c6 28 0 0.185298f
c7 27 0 0.0709719f
c8 26 0 0.0323008f
c9 23 0 0.03801f
c10 17 0 0.3665f
c11 15 0 0.032382f
c12 14 0 0.184539f
c13 8 0 0.70237f
c14 4 0 0.320013f
r15 42 58 1.32058
r16 36 39 0.03
r17 36 37 0.0351795
r18 31 36 0.0158951
r19 30 31 0.573333
r20 28 30 0.0446983
r21 28 29 0.293333
r22 27 29 0.0446983
r23 26 34 0.0451795
r24 26 27 0.146667
r25 23 37 0.4
r26 20 23 0.0446983
r27 20 32 0.16
r28 15 32 0.0451795
r29 15 17 0.24
r30 14 58 0.665455
r31 14 44 3.87454
r32 14 39 11.07
r33 14 34 7.805
r34 14 17 3.106
r35 13 42 2.5258
r36 12 13 4.81284
r37 10 14 1.82727
r38 6 14 11.6236
r39 6 8 187.5
r40 2 44 3.77626
r41 2 4 52.5
.ends

.subckt PM_ALU_16BIT_X_IX333.N$7 4 8 10 12
c0 37 0 0.0728f
c1 35 0 0.02121f
c2 27 0 0.088496f
c3 26 0 0.242888f
c4 22 0 0.208132f
c5 20 0 0.03192f
c6 18 0 0.205437f
c7 17 0 0.03801f
c8 16 0 0.12722f
c9 15 0 0.417748f
c10 13 0 0.1365f
c11 8 0 0.613952f
c12 4 0 0.748716f
r13 28 35 0.0338756
r14 27 37 0.0451795
r15 27 28 0.186667
r16 25 35 0.00880368
r17 25 26 0.506667
r18 20 26 0.0425897
r19 20 22 0.12
r20 18 29 0.106667
r21 16 35 0.0338756
r22 16 17 0.266667
r23 15 17 0.0446983
r24 14 29 0.0046983
r25 14 15 0.88
r26 13 40 0.147922
r27 13 45 8.71929
r28 13 43 8.71929
r29 13 37 11.07
r30 13 18 7.805
r31 13 22 5.17667
r32 12 13 1.29176
r33 10 40 1.67935
r34 8 45 130
r35 4 43 185
.ends

.subckt PM_ALU_16BIT_X_IX333.N$4 4 8 10 12
c0 39 0 0.06818f
c1 37 0 0.193199f
c2 34 0 0.129172f
c3 32 0 0.0794178f
c4 31 0 0.271448f
c5 29 0 0.0390495f
c6 28 0 0.182741f
c7 27 0 0.0695372f
c8 26 0 0.03192f
c9 23 0 0.039606f
c10 17 0 0.380416f
c11 15 0 0.0331505f
c12 14 0 0.18438f
c13 8 0 0.701172f
c14 4 0 0.318132f
r15 42 58 1.32058
r16 36 39 0.03
r17 36 37 0.0351795
r18 31 36 0.0158951
r19 30 31 0.573333
r20 28 30 0.0446983
r21 28 29 0.293333
r22 27 29 0.0446983
r23 26 34 0.0451795
r24 26 27 0.146667
r25 23 37 0.4
r26 20 23 0.0446983
r27 20 32 0.16
r28 15 32 0.0451795
r29 15 17 0.24
r30 14 58 0.665455
r31 14 44 3.87454
r32 14 39 11.07
r33 14 34 7.805
r34 14 17 3.106
r35 13 42 2.5258
r36 12 13 4.81284
r37 10 14 1.82727
r38 6 14 11.6236
r39 6 8 187.5
r40 2 44 3.77626
r41 2 4 52.5
.ends

.subckt PM_ALU_16BIT_X_IX453.N$7 4 8 10 12
c0 37 0 0.0728f
c1 35 0 0.02121f
c2 27 0 0.088496f
c3 26 0 0.242888f
c4 22 0 0.208132f
c5 20 0 0.03192f
c6 18 0 0.205437f
c7 17 0 0.03801f
c8 16 0 0.12722f
c9 15 0 0.420268f
c10 13 0 0.1365f
c11 8 0 0.613952f
c12 4 0 0.749556f
r13 28 35 0.0338756
r14 27 37 0.0451795
r15 27 28 0.186667
r16 25 35 0.00880368
r17 25 26 0.506667
r18 20 26 0.0425897
r19 20 22 0.12
r20 18 29 0.106667
r21 16 35 0.0338756
r22 16 17 0.266667
r23 15 17 0.0446983
r24 14 29 0.0046983
r25 14 15 0.88
r26 13 40 0.147922
r27 13 45 8.71929
r28 13 43 8.71929
r29 13 37 11.07
r30 13 18 7.805
r31 13 22 5.17667
r32 12 13 1.29176
r33 10 40 1.67935
r34 8 45 130
r35 4 43 185
.ends

.subckt PM_ALU_16BIT_X_IX453.N$4 4 8 10 12
c0 39 0 0.06818f
c1 37 0 0.194812f
c2 34 0 0.129172f
c3 32 0 0.0767227f
c4 31 0 0.273968f
c5 29 0 0.0390495f
c6 28 0 0.182741f
c7 27 0 0.0695372f
c8 26 0 0.03192f
c9 23 0 0.03801f
c10 17 0 0.367732f
c11 15 0 0.032172f
c12 14 0 0.18438f
c13 8 0 0.702292f
c14 4 0 0.318132f
r15 42 58 1.32058
r16 36 39 0.03
r17 36 37 0.0351795
r18 31 36 0.0158951
r19 30 31 0.573333
r20 28 30 0.0446983
r21 28 29 0.293333
r22 27 29 0.0446983
r23 26 34 0.0451795
r24 26 27 0.146667
r25 23 37 0.4
r26 20 23 0.0446983
r27 20 32 0.16
r28 15 32 0.0451795
r29 15 17 0.24
r30 14 58 0.665455
r31 14 44 3.87454
r32 14 39 11.07
r33 14 34 7.805
r34 14 17 3.106
r35 13 42 2.5258
r36 12 13 4.81284
r37 10 14 1.82727
r38 6 14 11.6236
r39 6 8 187.5
r40 2 44 3.77626
r41 2 4 52.5
.ends

.subckt PM_ALU_16BIT_X_IX7.N$7 4 8 10 12
c0 37 0 0.074186f
c1 35 0 0.022029f
c2 27 0 0.0929792f
c3 26 0 0.240368f
c4 22 0 0.207578f
c5 20 0 0.032466f
c6 18 0 0.204917f
c7 17 0 0.038829f
c8 16 0 0.129942f
c9 15 0 0.422096f
c10 13 0 0.136888f
c11 8 0 0.612832f
c12 4 0 0.748436f
r13 28 35 0.0338756
r14 27 37 0.0451795
r15 27 28 0.186667
r16 25 35 0.00880368
r17 25 26 0.506667
r18 20 26 0.0425897
r19 20 22 0.12
r20 18 29 0.106667
r21 16 35 0.0338756
r22 16 17 0.266667
r23 15 17 0.0446983
r24 14 29 0.0046983
r25 14 15 0.88
r26 13 40 0.147922
r27 13 45 8.71929
r28 13 43 8.71929
r29 13 37 11.07
r30 13 18 7.805
r31 13 22 5.17667
r32 12 13 1.29176
r33 10 40 1.67935
r34 8 45 130
r35 4 43 185
.ends

.subckt PM_ALU_16BIT_X_IX7.N$4 4 8 10 12
c0 39 0 0.07329f
c1 37 0 0.197164f
c2 34 0 0.127492f
c3 32 0 0.0790384f
c4 31 0 0.285333f
c5 29 0 0.03801f
c6 28 0 0.179664f
c7 27 0 0.069323f
c8 26 0 0.03192f
c9 23 0 0.040089f
c10 17 0 0.374907f
c11 15 0 0.032984f
c12 14 0 0.184948f
c13 8 0 0.701172f
c14 4 0 0.318729f
r15 42 58 1.32058
r16 36 39 0.03
r17 36 37 0.0351795
r18 31 36 0.0158951
r19 30 31 0.573333
r20 28 30 0.0446983
r21 28 29 0.293333
r22 27 29 0.0446983
r23 26 34 0.0451795
r24 26 27 0.146667
r25 23 37 0.4
r26 20 23 0.0446983
r27 20 32 0.16
r28 15 32 0.0451795
r29 15 17 0.24
r30 14 58 0.665455
r31 14 44 3.87454
r32 14 39 11.07
r33 14 34 7.805
r34 14 17 3.106
r35 13 42 2.5258
r36 12 13 4.81284
r37 10 14 1.82727
r38 6 14 11.6236
r39 6 8 187.5
r40 2 44 3.77626
r41 2 4 52.5
.ends

.subckt PM_ALU_16BIT_X_IX213.N$7 4 8 10 12
c0 37 0 0.074186f
c1 35 0 0.022029f
c2 27 0 0.0903992f
c3 26 0 0.240368f
c4 22 0 0.207578f
c5 20 0 0.032466f
c6 18 0 0.20574f
c7 17 0 0.0400545f
c8 16 0 0.129942f
c9 15 0 0.43749f
c10 13 0 0.136888f
c11 8 0 0.612832f
c12 4 0 0.749276f
r13 28 35 0.0338756
r14 27 37 0.0451795
r15 27 28 0.186667
r16 25 35 0.00880368
r17 25 26 0.506667
r18 20 26 0.0425897
r19 20 22 0.12
r20 18 29 0.106667
r21 16 35 0.0338756
r22 16 17 0.266667
r23 15 17 0.0446983
r24 14 29 0.0046983
r25 14 15 0.88
r26 13 40 0.147922
r27 13 45 8.71929
r28 13 43 8.71929
r29 13 37 11.07
r30 13 18 7.805
r31 13 22 5.17667
r32 12 13 1.29176
r33 10 40 1.67935
r34 8 45 130
r35 4 43 185
.ends

.subckt PM_ALU_16BIT_X_IX213.N$4 4 8 10 12
c0 39 0 0.071379f
c1 37 0 0.197164f
c2 34 0 0.127492f
c3 32 0 0.0760297f
c4 31 0 0.278864f
c5 29 0 0.0384384f
c6 28 0 0.179895f
c7 27 0 0.0703877f
c8 26 0 0.032172f
c9 23 0 0.038892f
c10 17 0 0.366052f
c11 15 0 0.03192f
c12 14 0 0.184754f
c13 8 0 0.701452f
c14 4 0 0.320192f
r15 42 58 1.32058
r16 36 39 0.03
r17 36 37 0.0351795
r18 31 36 0.0158951
r19 30 31 0.573333
r20 28 30 0.0446983
r21 28 29 0.293333
r22 27 29 0.0446983
r23 26 34 0.0451795
r24 26 27 0.146667
r25 23 37 0.4
r26 20 23 0.0446983
r27 20 32 0.16
r28 15 32 0.0451795
r29 15 17 0.24
r30 14 58 0.665455
r31 14 44 3.87454
r32 14 39 11.07
r33 14 34 7.805
r34 14 17 3.106
r35 13 42 2.5258
r36 12 13 4.81284
r37 10 14 1.82727
r38 6 14 11.6236
r39 6 8 187.5
r40 2 44 3.77626
r41 2 4 52.5
.ends

.subckt PM_ALU_16BIT_X_IX253.N$7 4 8 10 12
c0 37 0 0.0728f
c1 35 0 0.02121f
c2 27 0 0.088496f
c3 26 0 0.240368f
c4 22 0 0.206452f
c5 20 0 0.03192f
c6 18 0 0.204933f
c7 17 0 0.03801f
c8 16 0 0.13058f
c9 15 0 0.420268f
c10 13 0 0.1365f
c11 8 0 0.612272f
c12 4 0 0.749164f
r13 28 35 0.0338756
r14 27 37 0.0451795
r15 27 28 0.186667
r16 25 35 0.00880368
r17 25 26 0.506667
r18 20 26 0.0425897
r19 20 22 0.12
r20 18 29 0.106667
r21 16 35 0.0338756
r22 16 17 0.266667
r23 15 17 0.0446983
r24 14 29 0.0046983
r25 14 15 0.88
r26 13 40 0.147922
r27 13 45 8.71929
r28 13 43 8.71929
r29 13 37 11.07
r30 13 18 7.805
r31 13 22 5.17667
r32 12 13 1.29176
r33 10 40 1.67935
r34 8 45 130
r35 4 43 185
.ends

.subckt PM_ALU_16BIT_X_IX253.N$4 4 8 10 12
c0 39 0 0.06818f
c1 37 0 0.191452f
c2 34 0 0.133936f
c3 32 0 0.075658f
c4 31 0 0.27497f
c5 29 0 0.039744f
c6 28 0 0.179074f
c7 27 0 0.0722338f
c8 26 0 0.033376f
c9 23 0 0.03801f
c10 17 0 0.364372f
c11 15 0 0.03192f
c12 14 0 0.18438f
c13 8 0 0.702292f
c14 4 0 0.317012f
r15 42 58 1.32058
r16 36 39 0.03
r17 36 37 0.0351795
r18 31 36 0.0158951
r19 30 31 0.573333
r20 28 30 0.0446983
r21 28 29 0.293333
r22 27 29 0.0446983
r23 26 34 0.0451795
r24 26 27 0.146667
r25 23 37 0.4
r26 20 23 0.0446983
r27 20 32 0.16
r28 15 32 0.0451795
r29 15 17 0.24
r30 14 58 0.665455
r31 14 44 3.87454
r32 14 39 11.07
r33 14 34 7.805
r34 14 17 3.106
r35 13 42 2.5258
r36 12 13 4.81284
r37 10 14 1.82727
r38 6 14 11.6236
r39 6 8 187.5
r40 2 44 3.77626
r41 2 4 52.5
.ends

.subckt PM_ALU_16BIT_X_IX41.N$7 4 8 10 12
c0 37 0 0.073304f
c1 35 0 0.0213675f
c2 27 0 0.088862f
c3 26 0 0.240368f
c4 22 0 0.206452f
c5 20 0 0.03192f
c6 18 0 0.203757f
c7 17 0 0.0381675f
c8 16 0 0.127744f
c9 15 0 0.421364f
c10 13 0 0.136812f
c11 8 0 0.612272f
c12 4 0 0.748713f
r13 28 35 0.0338756
r14 27 37 0.0451795
r15 27 28 0.186667
r16 25 35 0.00880368
r17 25 26 0.506667
r18 20 26 0.0425897
r19 20 22 0.12
r20 18 29 0.106667
r21 16 35 0.0338756
r22 16 17 0.266667
r23 15 17 0.0446983
r24 14 29 0.0046983
r25 14 15 0.88
r26 13 40 0.147922
r27 13 45 8.71929
r28 13 43 8.71929
r29 13 37 11.07
r30 13 18 7.805
r31 13 22 5.17667
r32 12 13 1.29176
r33 10 40 1.67935
r34 8 45 130
r35 4 43 185
.ends

.subckt PM_ALU_16BIT_X_IX41.N$4 4 8 10 12
c0 39 0 0.07028f
c1 37 0 0.200242f
c2 34 0 0.127492f
c3 32 0 0.0788348f
c4 31 0 0.273968f
c5 29 0 0.03801f
c6 28 0 0.177918f
c7 27 0 0.069323f
c8 26 0 0.03192f
c9 23 0 0.0401752f
c10 17 0 0.378196f
c11 15 0 0.032984f
c12 14 0 0.184814f
c13 8 0 0.701732f
c14 4 0 0.317012f
r15 42 58 1.32058
r16 36 39 0.03
r17 36 37 0.0351795
r18 31 36 0.0158951
r19 30 31 0.573333
r20 28 30 0.0446983
r21 28 29 0.293333
r22 27 29 0.0446983
r23 26 34 0.0451795
r24 26 27 0.146667
r25 23 37 0.4
r26 20 23 0.0446983
r27 20 32 0.16
r28 15 32 0.0451795
r29 15 17 0.24
r30 14 58 0.665455
r31 14 44 3.87454
r32 14 39 11.07
r33 14 34 7.805
r34 14 17 3.106
r35 13 42 2.5258
r36 12 13 4.81284
r37 10 14 1.82727
r38 6 14 11.6236
r39 6 8 187.5
r40 2 44 3.77626
r41 2 4 52.5
.ends

.subckt PM_ALU_16BIT_X_IX373.N$7 4 8 10 12
c0 37 0 0.0728f
c1 35 0 0.02121f
c2 27 0 0.088496f
c3 26 0 0.241628f
c4 22 0 0.206452f
c5 20 0 0.03192f
c6 18 0 0.203757f
c7 17 0 0.03801f
c8 16 0 0.12722f
c9 15 0 0.420268f
c10 13 0 0.1365f
c11 8 0 0.612832f
c12 4 0 0.748156f
r13 28 35 0.0338756
r14 27 37 0.0451795
r15 27 28 0.186667
r16 25 35 0.00880368
r17 25 26 0.506667
r18 20 26 0.0425897
r19 20 22 0.12
r20 18 29 0.106667
r21 16 35 0.0338756
r22 16 17 0.266667
r23 15 17 0.0446983
r24 14 29 0.0046983
r25 14 15 0.88
r26 13 40 0.147922
r27 13 45 8.71929
r28 13 43 8.71929
r29 13 37 11.07
r30 13 18 7.805
r31 13 22 5.17667
r32 12 13 1.29176
r33 10 40 1.67935
r34 8 45 130
r35 4 43 185
.ends

.subckt PM_ALU_16BIT_X_IX373.N$4 4 8 10 12
c0 39 0 0.06818f
c1 37 0 0.194812f
c2 34 0 0.130622f
c3 32 0 0.0765652f
c4 31 0 0.271448f
c5 29 0 0.038598f
c6 28 0 0.18126f
c7 27 0 0.0714454f
c8 26 0 0.032704f
c9 23 0 0.03801f
c10 17 0 0.364372f
c11 15 0 0.032382f
c12 14 0 0.18438f
c13 8 0 0.700612f
c14 4 0 0.318132f
r15 42 58 1.32058
r16 36 39 0.03
r17 36 37 0.0351795
r18 31 36 0.0158951
r19 30 31 0.573333
r20 28 30 0.0446983
r21 28 29 0.293333
r22 27 29 0.0446983
r23 26 34 0.0451795
r24 26 27 0.146667
r25 23 37 0.4
r26 20 23 0.0446983
r27 20 32 0.16
r28 15 32 0.0451795
r29 15 17 0.24
r30 14 58 0.665455
r31 14 44 3.87454
r32 14 39 11.07
r33 14 34 7.805
r34 14 17 3.106
r35 13 42 2.5258
r36 12 13 4.81284
r37 10 14 1.82727
r38 6 14 11.6236
r39 6 8 187.5
r40 2 44 3.77626
r41 2 4 52.5
.ends

.subckt PM_ALU_16BIT_X_IX93.N$7 4 8 10 12
c0 37 0 0.0728f
c1 35 0 0.02121f
c2 27 0 0.088496f
c3 26 0 0.240368f
c4 22 0 0.208009f
c5 20 0 0.0325043f
c6 18 0 0.206865f
c7 17 0 0.039438f
c8 16 0 0.127934f
c9 15 0 0.435242f
c10 13 0 0.1365f
c11 8 0 0.612832f
c12 4 0 0.74957f
r13 28 35 0.0338756
r14 27 37 0.0451795
r15 27 28 0.186667
r16 25 35 0.00880368
r17 25 26 0.506667
r18 20 26 0.0425897
r19 20 22 0.12
r20 18 29 0.106667
r21 16 35 0.0338756
r22 16 17 0.266667
r23 15 17 0.0446983
r24 14 29 0.0046983
r25 14 15 0.88
r26 13 40 0.147922
r27 13 45 8.71929
r28 13 43 8.71929
r29 13 37 11.07
r30 13 18 7.805
r31 13 22 5.17667
r32 12 13 1.29176
r33 10 40 1.67935
r34 8 45 130
r35 4 43 185
.ends

.subckt PM_ALU_16BIT_X_IX93.N$4 4 8 10 12
c0 39 0 0.069013f
c1 37 0 0.19344f
c2 34 0 0.136916f
c3 32 0 0.075658f
c4 31 0 0.272928f
c5 29 0 0.041304f
c6 28 0 0.182912f
c7 27 0 0.075246f
c8 26 0 0.034232f
c9 23 0 0.038262f
c10 17 0 0.366052f
c11 15 0 0.03192f
c12 14 0 0.184638f
c13 8 0 0.702012f
c14 4 0 0.317012f
r15 42 58 1.32058
r16 36 39 0.03
r17 36 37 0.0351795
r18 31 36 0.0158951
r19 30 31 0.573333
r20 28 30 0.0446983
r21 28 29 0.293333
r22 27 29 0.0446983
r23 26 34 0.0451795
r24 26 27 0.146667
r25 23 37 0.4
r26 20 23 0.0446983
r27 20 32 0.16
r28 15 32 0.0451795
r29 15 17 0.24
r30 14 58 0.665455
r31 14 44 3.87454
r32 14 39 11.07
r33 14 34 7.805
r34 14 17 3.106
r35 13 42 2.5258
r36 12 13 4.81284
r37 10 14 1.82727
r38 6 14 11.6236
r39 6 8 187.5
r40 2 44 3.77626
r41 2 4 52.5
.ends

.subckt PM_ALU_16BIT_X_IX493.N$7 4 8 10 12
c0 37 0 0.073024f
c1 35 0 0.02121f
c2 27 0 0.0916712f
c3 26 0 0.240368f
c4 22 0 0.206452f
c5 20 0 0.03192f
c6 18 0 0.203757f
c7 17 0 0.03801f
c8 16 0 0.12722f
c9 15 0 0.420268f
c10 13 0 0.136703f
c11 8 0 0.612272f
c12 4 0 0.75251f
r13 28 35 0.0338756
r14 27 37 0.0451795
r15 27 28 0.186667
r16 25 35 0.00880368
r17 25 26 0.506667
r18 20 26 0.0425897
r19 20 22 0.12
r20 18 29 0.106667
r21 16 35 0.0338756
r22 16 17 0.266667
r23 15 17 0.0446983
r24 14 29 0.0046983
r25 14 15 0.88
r26 13 40 0.147922
r27 13 45 8.71929
r28 13 43 8.71929
r29 13 37 11.07
r30 13 18 7.805
r31 13 22 5.17667
r32 12 13 1.29176
r33 10 40 1.67935
r34 8 45 130
r35 4 43 185
.ends

.subckt PM_ALU_16BIT_X_IX493.N$4 4 8 10 12
c0 39 0 0.06818f
c1 37 0 0.191823f
c2 34 0 0.136436f
c3 32 0 0.0763331f
c4 31 0 0.272708f
c5 29 0 0.041202f
c6 28 0 0.1779f
c7 27 0 0.0755782f
c8 26 0 0.03416f
c9 23 0 0.0383492f
c10 17 0 0.36731f
c11 15 0 0.0321461f
c12 14 0 0.18438f
c13 8 0 0.702627f
c14 4 0 0.317012f
r15 42 58 1.32058
r16 36 39 0.03
r17 36 37 0.0351795
r18 31 36 0.0158951
r19 30 31 0.573333
r20 28 30 0.0446983
r21 28 29 0.293333
r22 27 29 0.0446983
r23 26 34 0.0451795
r24 26 27 0.146667
r25 23 37 0.4
r26 20 23 0.0446983
r27 20 32 0.16
r28 15 32 0.0451795
r29 15 17 0.24
r30 14 58 0.665455
r31 14 44 3.87454
r32 14 39 11.07
r33 14 34 7.805
r34 14 17 3.106
r35 13 42 2.5258
r36 12 13 4.81284
r37 10 14 1.82727
r38 6 14 11.6236
r39 6 8 187.5
r40 2 44 3.77626
r41 2 4 52.5
.ends

.subckt PM_ALU_16BIT_X_IX533.N$7 4 8 10 12
c0 37 0 0.073724f
c1 35 0 0.0217757f
c2 27 0 0.089594f
c3 26 0 0.241284f
c4 22 0 0.207333f
c5 20 0 0.032046f
c6 18 0 0.205833f
c7 17 0 0.0384825f
c8 16 0 0.129053f
c9 15 0 0.419789f
c10 13 0 0.136848f
c11 8 0 0.612272f
c12 4 0 0.748818f
r13 28 35 0.0338756
r14 27 37 0.0451795
r15 27 28 0.186667
r16 25 35 0.00880368
r17 25 26 0.506667
r18 20 26 0.0425897
r19 20 22 0.12
r20 18 29 0.106667
r21 16 35 0.0338756
r22 16 17 0.266667
r23 15 17 0.0446983
r24 14 29 0.0046983
r25 14 15 0.88
r26 13 40 0.147922
r27 13 45 8.71929
r28 13 43 8.71929
r29 13 37 11.07
r30 13 18 7.805
r31 13 22 5.17667
r32 12 13 1.29176
r33 10 40 1.67935
r34 8 45 130
r35 4 43 185
.ends

.subckt PM_ALU_16BIT_X_IX533.N$4 4 8 10 12
c0 39 0 0.0702275f
c1 37 0 0.197583f
c2 34 0 0.136916f
c3 32 0 0.0756832f
c4 31 0 0.273212f
c5 29 0 0.041202f
c6 28 0 0.1779f
c7 27 0 0.0751446f
c8 26 0 0.03416f
c9 23 0 0.0392385f
c10 17 0 0.364372f
c11 15 0 0.03192f
c12 14 0 0.184636f
c13 8 0 0.701452f
c14 4 0 0.317012f
r15 42 58 1.32058
r16 36 39 0.03
r17 36 37 0.0351795
r18 31 36 0.0158951
r19 30 31 0.573333
r20 28 30 0.0446983
r21 28 29 0.293333
r22 27 29 0.0446983
r23 26 34 0.0451795
r24 26 27 0.146667
r25 23 37 0.4
r26 20 23 0.0446983
r27 20 32 0.16
r28 15 32 0.0451795
r29 15 17 0.24
r30 14 58 0.665455
r31 14 44 3.87454
r32 14 39 11.07
r33 14 34 7.805
r34 14 17 3.106
r35 13 42 2.5258
r36 12 13 4.81284
r37 10 14 1.82727
r38 6 14 11.6236
r39 6 8 187.5
r40 2 44 3.77626
r41 2 4 52.5
.ends

.subckt PM_ALU_16BIT_X_IX573.N$7 4 8 10 12
c0 37 0 0.0732704f
c1 35 0 0.02121f
c2 27 0 0.0885514f
c3 26 0 0.241628f
c4 22 0 0.206452f
c5 20 0 0.03192f
c6 18 0 0.205437f
c7 17 0 0.03801f
c8 16 0 0.12722f
c9 15 0 0.420268f
c10 13 0 0.136722f
c11 8 0 0.614868f
c12 4 0 0.751162f
r13 28 35 0.0338756
r14 27 37 0.0451795
r15 27 28 0.186667
r16 25 35 0.00880368
r17 25 26 0.506667
r18 20 26 0.0425897
r19 20 22 0.12
r20 18 29 0.106667
r21 16 35 0.0338756
r22 16 17 0.266667
r23 15 17 0.0446983
r24 14 29 0.0046983
r25 14 15 0.88
r26 13 40 0.147922
r27 13 45 8.71929
r28 13 43 8.71929
r29 13 37 11.07
r30 13 18 7.805
r31 13 22 5.17667
r32 12 13 1.29176
r33 10 40 1.67935
r34 8 45 130
r35 4 43 185
.ends

.subckt PM_ALU_16BIT_X_IX573.N$4 4 8 10 12
c0 39 0 0.06818f
c1 37 0 0.193199f
c2 34 0 0.129172f
c3 32 0 0.0795214f
c4 31 0 0.273968f
c5 29 0 0.0382305f
c6 28 0 0.178927f
c7 27 0 0.0703562f
c8 26 0 0.03192f
c9 23 0 0.039606f
c10 17 0 0.378196f
c11 15 0 0.032984f
c12 14 0 0.185145f
c13 8 0 0.705217f
c14 4 0 0.317572f
r15 42 58 1.32058
r16 36 39 0.03
r17 36 37 0.0351795
r18 31 36 0.0158951
r19 30 31 0.573333
r20 28 30 0.0446983
r21 28 29 0.293333
r22 27 29 0.0446983
r23 26 34 0.0451795
r24 26 27 0.146667
r25 23 37 0.4
r26 20 23 0.0446983
r27 20 32 0.16
r28 15 32 0.0451795
r29 15 17 0.24
r30 14 58 0.665455
r31 14 44 3.87454
r32 14 39 11.07
r33 14 34 7.805
r34 14 17 3.106
r35 13 42 2.5258
r36 12 13 4.81284
r37 10 14 1.82727
r38 6 14 11.6236
r39 6 8 187.5
r40 2 44 3.77626
r41 2 4 52.5
.ends

.subckt PM_ALU_16BIT_X_IX53.N$7 4 8 10 12
c0 37 0 0.0737608f
c1 35 0 0.0216006f
c2 27 0 0.0894037f
c3 26 0 0.240479f
c4 22 0 0.206452f
c5 20 0 0.03192f
c6 18 0 0.206605f
c7 17 0 0.0384006f
c8 16 0 0.131506f
c9 15 0 0.419008f
c10 13 0 0.13681f
c11 8 0 0.617048f
c12 4 0 0.748716f
r13 28 35 0.0338756
r14 27 37 0.0451795
r15 27 28 0.186667
r16 25 35 0.00880368
r17 25 26 0.506667
r18 20 26 0.0425897
r19 20 22 0.12
r20 18 29 0.106667
r21 16 35 0.0338756
r22 16 17 0.266667
r23 15 17 0.0446983
r24 14 29 0.0046983
r25 14 15 0.88
r26 13 40 0.147922
r27 13 45 8.71929
r28 13 43 8.71929
r29 13 37 11.07
r30 13 18 7.805
r31 13 22 5.17667
r32 12 13 1.29176
r33 10 40 1.67935
r34 8 45 130
r35 4 43 185
.ends

.subckt PM_ALU_16BIT_X_IX53.N$4 4 8 10 12
c0 39 0 0.068243f
c1 37 0 0.193369f
c2 34 0 0.128408f
c3 32 0 0.0790887f
c4 31 0 0.272708f
c5 29 0 0.03801f
c6 28 0 0.1779f
c7 27 0 0.069323f
c8 26 0 0.032676f
c9 23 0 0.0396267f
c10 17 0 0.378196f
c11 15 0 0.032984f
c12 14 0 0.184699f
c13 8 0 0.703974f
c14 4 0 0.317221f
r15 42 58 1.32058
r16 36 39 0.03
r17 36 37 0.0351795
r18 31 36 0.0158951
r19 30 31 0.573333
r20 28 30 0.0446983
r21 28 29 0.293333
r22 27 29 0.0446983
r23 26 34 0.0451795
r24 26 27 0.146667
r25 23 37 0.4
r26 20 23 0.0446983
r27 20 32 0.16
r28 15 32 0.0451795
r29 15 17 0.24
r30 14 58 0.665455
r31 14 44 3.87454
r32 14 39 11.07
r33 14 34 7.805
r34 14 17 3.106
r35 13 42 2.5258
r36 12 13 4.81284
r37 10 14 1.82727
r38 6 14 11.6236
r39 6 8 187.5
r40 2 44 3.77626
r41 2 4 52.5
.ends

.subckt PM_ALU_16BIT_X_IX613.N$7 4 8 10 12
c0 37 0 0.073598f
c1 35 0 0.021588f
c2 27 0 0.0893744f
c3 26 0 0.240368f
c4 22 0 0.206452f
c5 20 0 0.03192f
c6 18 0 0.204213f
c7 17 0 0.038388f
c8 16 0 0.129364f
c9 15 0 0.417871f
c10 13 0 0.136846f
c11 8 0 0.612272f
c12 4 0 0.748153f
r13 28 35 0.0338756
r14 27 37 0.0451795
r15 27 28 0.186667
r16 25 35 0.00880368
r17 25 26 0.506667
r18 20 26 0.0425897
r19 20 22 0.12
r20 18 29 0.106667
r21 16 35 0.0338756
r22 16 17 0.266667
r23 15 17 0.0446983
r24 14 29 0.0046983
r25 14 15 0.88
r26 13 40 0.147922
r27 13 45 8.71929
r28 13 43 8.71929
r29 13 37 11.07
r30 13 18 7.805
r31 13 22 5.17667
r32 12 13 1.29176
r33 10 40 1.67935
r34 8 45 130
r35 4 43 185
.ends

.subckt PM_ALU_16BIT_X_IX613.N$4 4 8 10 12
c0 39 0 0.070574f
c1 37 0 0.196734f
c2 34 0 0.12794f
c3 32 0 0.0758571f
c4 31 0 0.271448f
c5 29 0 0.041202f
c6 28 0 0.1779f
c7 27 0 0.0755838f
c8 26 0 0.032028f
c9 23 0 0.0390684f
c10 17 0 0.364372f
c11 15 0 0.03192f
c12 14 0 0.185066f
c13 8 0 0.700808f
c14 4 0 0.317074f
r15 42 58 1.32058
r16 36 39 0.03
r17 36 37 0.0351795
r18 31 36 0.0158951
r19 30 31 0.573333
r20 28 30 0.0446983
r21 28 29 0.293333
r22 27 29 0.0446983
r23 26 34 0.0451795
r24 26 27 0.146667
r25 23 37 0.4
r26 20 23 0.0446983
r27 20 32 0.16
r28 15 32 0.0451795
r29 15 17 0.24
r30 14 58 0.665455
r31 14 44 3.87454
r32 14 39 11.07
r33 14 34 7.805
r34 14 17 3.106
r35 13 42 2.5258
r36 12 13 4.81284
r37 10 14 1.82727
r38 6 14 11.6236
r39 6 8 187.5
r40 2 44 3.77626
r41 2 4 52.5
.ends

.subckt PM_ALU_16BIT_X_IX433.N$4 4 8 10 12
c0 34 0 0.10674f
c1 30 0 0.08144f
c2 28 0 0.505969f
c3 26 0 0.03694f
c4 25 0 0.184403f
c5 24 0 0.03621f
c6 23 0 0.226499f
c7 20 0 0.17874f
c8 16 0 0.127492f
c9 14 0 0.03272f
c10 13 0 0.1365f
c11 8 0 0.977001f
c12 4 0 0.444692f
r13 30 33 0.0466492
r14 28 36 0.0251623
r15 27 28 1.006
r16 25 36 0.0195706
r17 25 26 0.386667
r18 23 27 0.0446983
r19 23 24 0.412
r20 21 26 0.0432202
r21 21 34 0.238
r22 20 24 0.0446983
r23 20 33 0.398
r24 14 34 0.0466492
r25 14 16 0.12
r26 13 39 0.16161
r27 13 41 8.71929
r28 13 36 11.07
r29 13 30 15.61
r30 13 16 7.765
r31 12 39 1.83475
r32 10 13 4.02
r33 8 41 272.5
r34 2 13 8.71929
r35 2 4 77.5
.ends

.subckt PM_ALU_16BIT_X_IX153.N$4 4 8 10 12
c0 34 0 0.10674f
c1 30 0 0.08144f
c2 28 0 0.503465f
c3 26 0 0.03694f
c4 25 0 0.184403f
c5 24 0 0.036f
c6 23 0 0.22542f
c7 20 0 0.17994f
c8 16 0 0.127492f
c9 14 0 0.03272f
c10 13 0 0.1365f
c11 8 0 0.976241f
c12 4 0 0.444692f
r13 30 33 0.0466492
r14 28 36 0.0251623
r15 27 28 1.006
r16 25 36 0.0195706
r17 25 26 0.386667
r18 23 27 0.0446983
r19 23 24 0.412
r20 21 26 0.0432202
r21 21 34 0.238
r22 20 24 0.0446983
r23 20 33 0.398
r24 14 34 0.0466492
r25 14 16 0.12
r26 13 39 0.16161
r27 13 41 8.71929
r28 13 36 11.07
r29 13 30 15.61
r30 13 16 7.765
r31 12 39 1.83475
r32 10 13 4.02
r33 8 41 272.5
r34 2 13 8.71929
r35 2 4 77.5
.ends

.subckt PM_ALU_16BIT_X_IX534.N$4 4 8 10 12
c0 34 0 0.109771f
c1 30 0 0.081566f
c2 28 0 0.504665f
c3 26 0 0.0402038f
c4 25 0 0.18452f
c5 24 0 0.036f
c6 23 0 0.22222f
c7 20 0 0.179844f
c8 16 0 0.129651f
c9 14 0 0.0337625f
c10 13 0 0.1365f
c11 8 0 0.976674f
c12 4 0 0.445252f
r13 30 33 0.0466492
r14 28 36 0.0251623
r15 27 28 1.006
r16 25 36 0.0195706
r17 25 26 0.386667
r18 23 27 0.0446983
r19 23 24 0.412
r20 21 26 0.0432202
r21 21 34 0.238
r22 20 24 0.0446983
r23 20 33 0.398
r24 14 34 0.0466492
r25 14 16 0.12
r26 13 39 0.16161
r27 13 41 8.71929
r28 13 36 11.07
r29 13 30 15.61
r30 13 16 7.765
r31 12 39 1.83475
r32 10 13 4.02
r33 8 41 272.5
r34 2 13 8.71929
r35 2 4 77.5
.ends

.subckt PM_ALU_16BIT_X_IX193.N$4 4 8 10 12
c0 34 0 0.10674f
c1 30 0 0.084576f
c2 28 0 0.502265f
c3 26 0 0.03694f
c4 25 0 0.184403f
c5 24 0 0.038f
c6 23 0 0.226604f
c7 20 0 0.18912f
c8 16 0 0.127492f
c9 14 0 0.03272f
c10 13 0 0.1365f
c11 8 0 0.97539f
c12 4 0 0.444692f
r13 30 33 0.0466492
r14 28 36 0.0251623
r15 27 28 1.006
r16 25 36 0.0195706
r17 25 26 0.386667
r18 23 27 0.0446983
r19 23 24 0.412
r20 21 26 0.0432202
r21 21 34 0.238
r22 20 24 0.0446983
r23 20 33 0.398
r24 14 34 0.0466492
r25 14 16 0.12
r26 13 39 0.16161
r27 13 41 8.71929
r28 13 36 11.07
r29 13 30 15.61
r30 13 16 7.765
r31 12 39 1.83475
r32 10 13 4.02
r33 8 41 272.5
r34 2 13 8.71929
r35 2 4 77.5
.ends

.subckt PM_ALU_16BIT_X_IX313.N$4 4 8 10 12
c0 34 0 0.10674f
c1 30 0 0.08592f
c2 28 0 0.505379f
c3 26 0 0.03694f
c4 25 0 0.184403f
c5 24 0 0.039132f
c6 23 0 0.225222f
c7 20 0 0.194231f
c8 16 0 0.127492f
c9 14 0 0.03272f
c10 13 0 0.1365f
c11 8 0 0.97677f
c12 4 0 0.444692f
r13 30 33 0.0466492
r14 28 36 0.0251623
r15 27 28 1.006
r16 25 36 0.0195706
r17 25 26 0.386667
r18 23 27 0.0446983
r19 23 24 0.412
r20 21 26 0.0432202