* File: ALU_16Bit.pex.netlist
* Created: Sat Nov  9 15:44:46 2019
* Program "Calibre xRC"
* Version "v2013.4_26.18"
* 
.global VDD VSS 
.include "ALU_16Bit.pex.netlist.pex"
.subckt ALU_16Bit  CB NBITOUT[15] NBITOUT[14] NBITOUT[13] NBITOUT[12]
+ NBITOUT[11] NBITOUT[10] NBITOUT[9] NBITOUT[8] NBITOUT[7] NBITOUT[6] NBITOUT[5]
+ NBITOUT[4] NBITOUT[3] NBITOUT[2] NBITOUT[1] NBITOUT[0] A[15] A[14] A[13] A[12]
+ A[11] A[10] A[9] A[8] A[7] A[6] A[5] A[4] A[3] A[2] A[1] A[0] B[15] B[14]
+ B[13] B[12] B[11] B[10] B[9] B[8] B[7] B[6] B[5] B[4] B[3] B[2] B[1] B[0]
+ CONTROL[1] CONTROL[0]
* 
* NBITOUT[14]	NBITOUT[14]
* NBITOUT[1]	NBITOUT[1]
* A[1]	A[1]
* B[15]	B[15]
* A[14]	A[14]
* NBITOUT[2]	NBITOUT[2]
* B[1]	B[1]
* NBITOUT[0]	NBITOUT[0]
* B[14]	B[14]
* A[15]	A[15]
* A[2]	A[2]
* B[2]	B[2]
* B[12]	B[12]
* NBITOUT[13]	NBITOUT[13]
* NBITOUT[12]	NBITOUT[12]
* A[13]	A[13]
* A[12]	A[12]
* A[5]	A[5]
* NBITOUT[8]	NBITOUT[8]
* A[11]	A[11]
* NBITOUT[11]	NBITOUT[11]
* NBITOUT[5]	NBITOUT[5]
* A[8]	A[8]
* A[0]	A[0]
* B[5]	B[5]
* B[13]	B[13]
* B[0]	B[0]
* A[6]	A[6]
* A[7]	A[7]
* B[11]	B[11]
* NBITOUT[6]	NBITOUT[6]
* NBITOUT[4]	NBITOUT[4]
* NBITOUT[7]	NBITOUT[7]
* B[9]	B[9]
* B[6]	B[6]
* B[7]	B[7]
* B[8]	B[8]
* A[4]	A[4]
* CONTROL[0]	CONTROL[0]
* A[9]	A[9]
* NBITOUT[9]	NBITOUT[9]
* CONTROL[1]	CONTROL[1]
* A[10]	A[10]
* A[3]	A[3]
* B[4]	B[4]
* NBITOUT[10]	NBITOUT[10]
* NBITOUT[3]	NBITOUT[3]
* B[3]	B[3]
* B[10]	B[10]
* NBITOUT[15]	NBITOUT[15]
* CB	CB
* VDD	VDD
* VSS	VSS
mX_IX633.MN1 N_X_IX633.N$4_X_ix633.MN1_d N_CONTROL[1]_X_ix633.MN1_g
+ N_VSS_X_ix633.MN1_s N_VSS_X_ix642.MN1_b NMOS L=1.4e-07 W=3.5e-07 M=1
mX_IX633.MP1 N_X_IX633.N$4_X_ix633.MP1_d N_CONTROL[1]_X_ix633.MP1_g
+ N_VDD_X_ix633.MP1_s N_VDD_X_ix456.MP1_b PMOS L=1.4e-07 W=7.7e-07 M=1
mX_IX633.MN4 N_NX632_X_ix633.MN4_d N_NX511_X_ix633.MN4_g N_VSS_X_ix633.MN1_s
+ N_VSS_X_ix642.MN1_b NMOS L=1.4e-07 W=3.5e-07 M=1
mX_IX633.MN2 N_NX632_X_ix633.MN4_d N_X_IX633.N$4_X_ix633.MN2_g
+ N_VSS_X_ix633.MN2_s N_VSS_X_ix642.MN1_b NMOS L=1.4e-07 W=3.5e-07 M=1
mX_IX633.MP4 N_NX632_X_ix633.MP4_d N_X_IX633.N$4_X_ix633.MP4_g X_IX633.N$1
+ N_VDD_X_ix456.MP1_b PMOS L=1.4e-07 W=1.19e-06 M=1
mX_IX633.MP2 X_IX633.N$1 N_NX511_X_ix633.MP2_g N_VDD_X_ix633.MP1_s
+ N_VDD_X_ix456.MP1_b PMOS L=1.4e-07 W=1.19e-06 M=1
mX_IX593.MN1 N_X_IX593.N$4_X_ix593.MN1_d N_CONTROL[1]_X_ix593.MN1_g
+ N_VSS_X_ix593.MN1_s N_VSS_X_ix642.MN1_b NMOS L=1.4e-07 W=3.5e-07 M=1
mX_IX593.MP1 N_X_IX593.N$4_X_ix593.MP1_d N_CONTROL[1]_X_ix593.MP1_g
+ N_VDD_X_ix593.MP1_s N_VDD_X_ix632.MP1_b PMOS L=1.4e-07 W=7.7e-07 M=1
mX_IX593.MN4 N_NX592_X_ix593.MN4_d N_NX335_X_ix593.MN4_g N_VSS_X_ix593.MN1_s
+ N_VSS_X_ix642.MN1_b NMOS L=1.4e-07 W=3.5e-07 M=1
mX_IX593.MN2 N_NX592_X_ix593.MN4_d N_X_IX593.N$4_X_ix593.MN2_g
+ N_VSS_X_ix593.MN2_s N_VSS_X_ix642.MN1_b NMOS L=1.4e-07 W=3.5e-07 M=1
mX_IX593.MP4 N_NX592_X_ix593.MP4_d N_X_IX593.N$4_X_ix593.MP4_g X_IX593.N$1
+ N_VDD_X_ix632.MP1_b PMOS L=1.4e-07 W=1.19e-06 M=1
mX_IX593.MP2 X_IX593.N$1 N_NX335_X_ix593.MP2_g N_VDD_X_ix593.MP1_s
+ N_VDD_X_ix632.MP1_b PMOS L=1.4e-07 W=1.19e-06 M=1
mX_IX553.MN1 N_X_IX553.N$4_X_ix553.MN1_d N_CONTROL[1]_X_ix553.MN1_g
+ N_VSS_X_ix553.MN1_s N_VSS_X_ix642.MN1_b NMOS L=1.4e-07 W=3.5e-07 M=1
mX_IX553.MP1 N_X_IX553.N$4_X_ix553.MP1_d N_CONTROL[1]_X_ix553.MP1_g
+ N_VDD_X_ix553.MP1_s N_VDD_X_ix390.MP1_b PMOS L=1.4e-07 W=7.7e-07 M=1
mX_IX553.MN4 N_NX552_X_ix553.MN4_d N_NX491_X_ix553.MN4_g N_VSS_X_ix553.MN1_s
+ N_VSS_X_ix642.MN1_b NMOS L=1.4e-07 W=3.5e-07 M=1
mX_IX553.MN2 N_NX552_X_ix553.MN4_d N_X_IX553.N$4_X_ix553.MN2_g
+ N_VSS_X_ix553.MN2_s N_VSS_X_ix642.MN1_b NMOS L=1.4e-07 W=3.5e-07 M=1
mX_IX553.MP4 N_NX552_X_ix553.MP4_d N_X_IX553.N$4_X_ix553.MP4_g X_IX553.N$1
+ N_VDD_X_ix390.MP1_b PMOS L=1.4e-07 W=1.19e-06 M=1
mX_IX553.MP2 X_IX553.N$1 N_NX491_X_ix553.MP2_g N_VDD_X_ix553.MP1_s
+ N_VDD_X_ix390.MP1_b PMOS L=1.4e-07 W=1.19e-06 M=1
mX_IX513.MN1 N_X_IX513.N$4_X_ix513.MN1_d N_CONTROL[1]_X_ix513.MN1_g
+ N_VSS_X_ix513.MN1_s N_VSS_X_ix642.MN1_b NMOS L=1.4e-07 W=3.5e-07 M=1
mX_IX513.MP1 N_X_IX513.N$4_X_ix513.MP1_d N_CONTROL[1]_X_ix513.MP1_g
+ N_VDD_X_ix513.MP1_s N_VDD_X_ix385.MP1_b PMOS L=1.4e-07 W=7.7e-07 M=1
mX_IX513.MN4 N_NX512_X_ix513.MN4_d N_NX339_X_ix513.MN4_g N_VSS_X_ix513.MN1_s
+ N_VSS_X_ix642.MN1_b NMOS L=1.4e-07 W=3.5e-07 M=1
mX_IX513.MN2 N_NX512_X_ix513.MN4_d N_X_IX513.N$4_X_ix513.MN2_g
+ N_VSS_X_ix513.MN2_s N_VSS_X_ix642.MN1_b NMOS L=1.4e-07 W=3.5e-07 M=1
mX_IX513.MP4 N_NX512_X_ix513.MP4_d N_X_IX513.N$4_X_ix513.MP4_g X_IX513.N$1
+ N_VDD_X_ix385.MP1_b PMOS L=1.4e-07 W=1.19e-06 M=1
mX_IX513.MP2 X_IX513.N$1 N_NX339_X_ix513.MP2_g N_VDD_X_ix513.MP1_s
+ N_VDD_X_ix385.MP1_b PMOS L=1.4e-07 W=1.19e-06 M=1
mX_IX473.MN1 N_X_IX473.N$4_X_ix473.MN1_d N_CONTROL[1]_X_ix473.MN1_g
+ N_VSS_X_ix473.MN1_s N_VSS_X_ix642.MN1_b NMOS L=1.4e-07 W=3.5e-07 M=1
mX_IX473.MP1 N_X_IX473.N$4_X_ix473.MP1_d N_CONTROL[1]_X_ix473.MP1_g
+ N_VDD_X_ix473.MP1_s N_VDD_X_ix642.MP1_b PMOS L=1.4e-07 W=7.7e-07 M=1
mX_IX473.MN4 N_NX472_X_ix473.MN4_d N_NX471_X_ix473.MN4_g N_VSS_X_ix473.MN1_s
+ N_VSS_X_ix642.MN1_b NMOS L=1.4e-07 W=3.5e-07 M=1
mX_IX473.MN2 N_NX472_X_ix473.MN4_d N_X_IX473.N$4_X_ix473.MN2_g
+ N_VSS_X_ix473.MN2_s N_VSS_X_ix642.MN1_b NMOS L=1.4e-07 W=3.5e-07 M=1
mX_IX473.MP4 N_NX472_X_ix473.MP4_d N_X_IX473.N$4_X_ix473.MP4_g X_IX473.N$1
+ N_VDD_X_ix642.MP1_b PMOS L=1.4e-07 W=1.19e-06 M=1
mX_IX473.MP2 X_IX473.N$1 N_NX471_X_ix473.MP2_g N_VDD_X_ix473.MP1_s
+ N_VDD_X_ix642.MP1_b PMOS L=1.4e-07 W=1.19e-06 M=1
mX_IX518.MN4 N_NX517_X_ix518.MN4_d N_CONTROL[1]_X_ix518.MN4_g X_IX518.N$6
+ N_VSS_X_ix642.MN1_b NMOS L=1.4e-07 W=7.7e-07 M=1
mX_IX518.MN3 X_IX518.N$5 N_NX377_X_ix518.MN3_g N_VSS_X_ix518.MN3_s
+ N_VSS_X_ix642.MN1_b NMOS L=1.4e-07 W=1.19e-06 M=1
mX_IX518.MN2 X_IX518.N$4 N_CONTROL[0]_X_ix518.MN2_g X_IX518.N$5
+ N_VSS_X_ix642.MN1_b NMOS L=1.4e-07 W=1.19e-06 M=1
mX_IX518.MN1 N_NX517_X_ix518.MN4_d N_NX24_X_ix518.MN1_g X_IX518.N$4
+ N_VSS_X_ix642.MN1_b NMOS L=1.4e-07 W=1.19e-06 M=1
mX_IX518.MP5 N_NX517_X_ix518.MP4_d N_CONTROL[1]_X_ix518.MP5_g X_IX518.N$11
+ N_VDD_X_ix456.MP1_b PMOS L=1.4e-07 W=1.19e-06 M=1
mX_IX518.MP4 N_NX517_X_ix518.MP4_d N_NX40_X_ix518.MP4_g X_IX518.N$11
+ N_VDD_X_ix456.MP1_b PMOS L=1.4e-07 W=1.19e-06 M=1
mX_IX518.MP3 X_IX518.N$11 N_NX24_X_ix518.MP3_g N_VDD_X_ix518.MP3_s
+ N_VDD_X_ix456.MP1_b PMOS L=1.4e-07 W=1.19e-06 M=1
mX_IX518.MP2 X_IX518.N$11 N_CONTROL[0]_X_ix518.MP2_g N_VDD_X_ix518.MP3_s
+ N_VDD_X_ix456.MP1_b PMOS L=1.4e-07 W=1.19e-06 M=1
mX_IX518.MP1 X_IX518.N$11 N_NX377_X_ix518.MP1_g N_VDD_X_ix518.MP1_s
+ N_VDD_X_ix456.MP1_b PMOS L=1.4e-07 W=1.19e-06 M=1
mX_IX518.MN5 X_IX518.N$6 N_NX40_X_ix518.MN5_g N_VSS_X_ix518.MN5_s
+ N_VSS_X_ix642.MN1_b NMOS L=1.4e-07 W=7.7e-07 M=1
mX_IX81.MN1 N_NX80_X_ix81.MN2_d N_CONTROL[1]_X_ix81.MN1_g X_IX81.N$7
+ N_VSS_X_ix642.MN1_b NMOS L=1.4e-07 W=7.7e-07 M=1
mX_IX81.MP3 N_NX80_X_ix81.MP3_d N_NX539_X_ix81.MP3_g N_VDD_X_ix81.MP3_s
+ N_VDD_X_ix390.MP1_b PMOS L=1.4e-07 W=1.05e-06 M=1
mX_IX81.MP2 N_NX80_X_ix81.MP3_d N_NX531_X_ix81.MP2_g X_IX81.N$6
+ N_VDD_X_ix390.MP1_b PMOS L=1.4e-07 W=2.03e-06 M=1
mX_IX81.MP1 X_IX81.N$6 N_CONTROL[1]_X_ix81.MP1_g N_VDD_X_ix81.MP1_s
+ N_VDD_X_ix390.MP1_b PMOS L=1.4e-07 W=2.03e-06 M=1
mX_IX81.MN2 N_NX80_X_ix81.MN2_d N_NX531_X_ix81.MN2_g X_IX81.N$7
+ N_VSS_X_ix642.MN1_b NMOS L=1.4e-07 W=7.7e-07 M=1
mX_IX81.MN3 X_IX81.N$7 N_NX539_X_ix81.MN3_g N_VSS_X_ix81.MN3_s
+ N_VSS_X_ix642.MN1_b NMOS L=1.4e-07 W=7.7e-07 M=1
mX_IX579.MP1 N_NX578_X_ix579.MP2_d N_NX495_X_ix579.MP1_g N_VDD_X_ix579.MP1_s
+ N_VDD_X_ix632.MP1_b PMOS L=1.4e-07 W=1.05e-06 M=1
mX_IX579.MN1 N_NX578_X_ix579.MN1_d N_NX495_X_ix579.MN1_g X_IX579.N$5
+ N_VSS_X_ix642.MN1_b NMOS L=1.4e-07 W=7.7e-07 M=1
mX_IX579.MN2 X_IX579.N$5 N_NX335_X_ix579.MN2_g N_VSS_X_ix579.MN2_s
+ N_VSS_X_ix642.MN1_b NMOS L=1.4e-07 W=7.7e-07 M=1
mX_IX579.MP2 N_NX578_X_ix579.MP2_d N_NX335_X_ix579.MP2_g N_VDD_X_ix579.MP2_s
+ N_VDD_X_ix632.MP1_b PMOS L=1.4e-07 W=1.05e-06 M=1
mX_IX619.MP1 N_NX618_X_ix619.MP2_d N_NX509_X_ix619.MP1_g N_VDD_X_ix619.MP1_s
+ N_VDD_X_ix385.MP1_b PMOS L=1.4e-07 W=1.05e-06 M=1
mX_IX619.MN1 N_NX618_X_ix619.MN1_d N_NX509_X_ix619.MN1_g X_IX619.N$5
+ N_VSS_X_ix642.MN1_b NMOS L=1.4e-07 W=7.7e-07 M=1
mX_IX619.MN2 X_IX619.N$5 N_NX511_X_ix619.MN2_g N_VSS_X_ix619.MN2_s
+ N_VSS_X_ix642.MN1_b NMOS L=1.4e-07 W=7.7e-07 M=1
mX_IX619.MP2 N_NX618_X_ix619.MP2_d N_NX511_X_ix619.MP2_g N_VDD_X_ix619.MP2_s
+ N_VDD_X_ix385.MP1_b PMOS L=1.4e-07 W=1.05e-06 M=1
mX_IX499.MP1 N_NX498_X_ix499.MP2_d N_NX475_X_ix499.MP1_g N_VDD_X_ix499.MP1_s
+ N_VDD_X_ix456.MP1_b PMOS L=1.4e-07 W=1.05e-06 M=1
mX_IX499.MN1 N_NX498_X_ix499.MN1_d N_NX475_X_ix499.MN1_g X_IX499.N$5
+ N_VSS_X_ix642.MN1_b NMOS L=1.4e-07 W=7.7e-07 M=1
mX_IX499.MN2 X_IX499.N$5 N_NX339_X_ix499.MN2_g N_VSS_X_ix499.MN2_s
+ N_VSS_X_ix642.MN1_b NMOS L=1.4e-07 W=7.7e-07 M=1
mX_IX499.MP2 N_NX498_X_ix499.MP2_d N_NX339_X_ix499.MP2_g N_VDD_X_ix499.MP2_s
+ N_VDD_X_ix456.MP1_b PMOS L=1.4e-07 W=1.05e-06 M=1
mX_IX539.MP1 N_NX538_X_ix539.MP2_d N_NX489_X_ix539.MP1_g N_VDD_X_ix539.MP1_s
+ N_VDD_X_ix560.MP1_b PMOS L=1.4e-07 W=1.05e-06 M=1
mX_IX539.MN1 N_NX538_X_ix539.MN1_d N_NX489_X_ix539.MN1_g X_IX539.N$5
+ N_VSS_X_ix642.MN1_b NMOS L=1.4e-07 W=7.7e-07 M=1
mX_IX539.MN2 X_IX539.N$5 N_NX491_X_ix539.MN2_g N_VSS_X_ix539.MN2_s
+ N_VSS_X_ix642.MN1_b NMOS L=1.4e-07 W=7.7e-07 M=1
mX_IX539.MP2 N_NX538_X_ix539.MP2_d N_NX491_X_ix539.MP2_g N_VDD_X_ix539.MP2_s
+ N_VDD_X_ix560.MP1_b PMOS L=1.4e-07 W=1.05e-06 M=1
mX_IX419.MP1 N_NX418_X_ix419.MP2_d N_NX455_X_ix419.MP1_g N_VDD_X_ix419.MP1_s
+ N_VDD_X_ix456.MP1_b PMOS L=1.4e-07 W=1.05e-06 M=1
mX_IX419.MN1 N_NX418_X_ix419.MN1_d N_NX455_X_ix419.MN1_g X_IX419.N$5
+ N_VSS_X_ix642.MN1_b NMOS L=1.4e-07 W=7.7e-07 M=1
mX_IX419.MN2 X_IX419.N$5 N_NX343_X_ix419.MN2_g N_VSS_X_ix419.MN2_s
+ N_VSS_X_ix642.MN1_b NMOS L=1.4e-07 W=7.7e-07 M=1
mX_IX419.MP2 N_NX418_X_ix419.MP2_d N_NX343_X_ix419.MP2_g N_VDD_X_ix419.MP2_s
+ N_VDD_X_ix456.MP1_b PMOS L=1.4e-07 W=1.05e-06 M=1
mX_IX690.MP1 N_NX689_X_ix690.MP2_d N_CONTROL[1]_X_ix690.MP1_g
+ N_VDD_X_ix690.MP1_s N_VDD_X_ix385.MP1_b PMOS L=1.4e-07 W=1.05e-06 M=1
mX_IX690.MN1 N_NX689_X_ix690.MN1_d N_CONTROL[1]_X_ix690.MN1_g X_IX690.N$5
+ N_VSS_X_ix642.MN1_b NMOS L=1.4e-07 W=7.7e-07 M=1
mX_IX690.MN2 X_IX690.N$5 N_NX331_X_ix690.MN2_g N_VSS_X_ix690.MN2_s
+ N_VSS_X_ix642.MN1_b NMOS L=1.4e-07 W=7.7e-07 M=1
mX_IX690.MP2 N_NX689_X_ix690.MP2_d N_NX331_X_ix690.MP2_g N_VDD_X_ix690.MP2_s
+ N_VDD_X_ix385.MP1_b PMOS L=1.4e-07 W=1.05e-06 M=1
mX_IX5.MP1 N_NX4_X_ix5.MP2_d N_CONTROL[0]_X_ix5.MP1_g N_VDD_X_ix5.MP1_s
+ N_VDD_X_ix642.MP1_b PMOS L=1.4e-07 W=1.05e-06 M=1
mX_IX5.MN1 N_NX4_X_ix5.MN1_d N_CONTROL[0]_X_ix5.MN1_g X_IX5.N$5
+ N_VSS_X_ix642.MN1_b NMOS L=1.4e-07 W=7.7e-07 M=1
mX_IX5.MN2 X_IX5.N$5 N_CONTROL[1]_X_ix5.MN2_g N_VSS_X_ix5.MN2_s
+ N_VSS_X_ix642.MN1_b NMOS L=1.4e-07 W=7.7e-07 M=1
mX_IX5.MP2 N_NX4_X_ix5.MP2_d N_CONTROL[1]_X_ix5.MP2_g N_VDD_X_ix5.MP2_s
+ N_VDD_X_ix642.MP1_b PMOS L=1.4e-07 W=1.05e-06 M=1
mX_IX433.MN1 N_X_IX433.N$4_X_ix433.MN1_d N_CONTROL[1]_X_ix433.MN1_g
+ N_VSS_X_ix433.MN1_s N_VSS_X_ix642.MN1_b NMOS L=1.4e-07 W=3.5e-07 M=1
mX_IX433.MP1 N_X_IX433.N$4_X_ix433.MP1_d N_CONTROL[1]_X_ix433.MP1_g
+ N_VDD_X_ix433.MP1_s N_VDD_X_ix632.MP1_b PMOS L=1.4e-07 W=7.7e-07 M=1
mX_IX433.MN4 N_NX432_X_ix433.MN4_d N_NX343_X_ix433.MN4_g N_VSS_X_ix433.MN1_s
+ N_VSS_X_ix642.MN1_b NMOS L=1.4e-07 W=3.5e-07 M=1
mX_IX433.MN2 N_NX432_X_ix433.MN4_d N_X_IX433.N$4_X_ix433.MN2_g
+ N_VSS_X_ix433.MN2_s N_VSS_X_ix642.MN1_b NMOS L=1.4e-07 W=3.5e-07 M=1
mX_IX433.MP4 N_NX432_X_ix433.MP4_d N_X_IX433.N$4_X_ix433.MP4_g X_IX433.N$1
+ N_VDD_X_ix632.MP1_b PMOS L=1.4e-07 W=1.19e-06 M=1
mX_IX433.MP2 X_IX433.N$1 N_NX343_X_ix433.MP2_g N_VDD_X_ix433.MP1_s
+ N_VDD_X_ix632.MP1_b PMOS L=1.4e-07 W=1.19e-06 M=1
mX_IX393.MN1 N_X_IX393.N$4_X_ix393.MN1_d N_CONTROL[1]_X_ix393.MN1_g
+ N_VSS_X_ix393.MN1_s N_VSS_X_ix642.MN1_b NMOS L=1.4e-07 W=3.5e-07 M=1
mX_IX393.MP1 N_X_IX393.N$4_X_ix393.MP1_d N_CONTROL[1]_X_ix393.MP1_g
+ N_VDD_X_ix393.MP1_s N_VDD_X_ix456.MP1_b PMOS L=1.4e-07 W=7.7e-07 M=1
mX_IX393.MN4 N_NX392_X_ix393.MN4_d N_NX451_X_ix393.MN4_g N_VSS_X_ix393.MN1_s
+ N_VSS_X_ix642.MN1_b NMOS L=1.4e-07 W=3.5e-07 M=1
mX_IX393.MN2 N_NX392_X_ix393.MN4_d N_X_IX393.N$4_X_ix393.MN2_g
+ N_VSS_X_ix393.MN2_s N_VSS_X_ix642.MN1_b NMOS L=1.4e-07 W=3.5e-07 M=1
mX_IX393.MP4 N_NX392_X_ix393.MP4_d N_X_IX393.N$4_X_ix393.MP4_g X_IX393.N$1
+ N_VDD_X_ix456.MP1_b PMOS L=1.4e-07 W=1.19e-06 M=1
mX_IX393.MP2 X_IX393.N$1 N_NX451_X_ix393.MP2_g N_VDD_X_ix393.MP1_s
+ N_VDD_X_ix456.MP1_b PMOS L=1.4e-07 W=1.19e-06 M=1
mX_IX353.MN1 N_X_IX353.N$4_X_ix353.MN1_d N_CONTROL[1]_X_ix353.MN1_g
+ N_VSS_X_ix353.MN1_s N_VSS_X_ix642.MN1_b NMOS L=1.4e-07 W=3.5e-07 M=1
mX_IX353.MP1 N_X_IX353.N$4_X_ix353.MP1_d N_CONTROL[1]_X_ix353.MP1_g
+ N_VDD_X_ix353.MP1_s N_VDD_X_ix385.MP1_b PMOS L=1.4e-07 W=7.7e-07 M=1
mX_IX353.MN4 N_NX352_X_ix353.MN4_d N_NX347_X_ix353.MN4_g N_VSS_X_ix353.MN1_s
+ N_VSS_X_ix642.MN1_b NMOS L=1.4e-07 W=3.5e-07 M=1
mX_IX353.MN2 N_NX352_X_ix353.MN4_d N_X_IX353.N$4_X_ix353.MN2_g
+ N_VSS_X_ix353.MN2_s N_VSS_X_ix642.MN1_b NMOS L=1.4e-07 W=3.5e-07 M=1
mX_IX353.MP4 N_NX352_X_ix353.MP4_d N_X_IX353.N$4_X_ix353.MP4_g X_IX353.N$1
+ N_VDD_X_ix385.MP1_b PMOS L=1.4e-07 W=1.19e-06 M=1
mX_IX353.MP2 X_IX353.N$1 N_NX347_X_ix353.MP2_g N_VDD_X_ix353.MP1_s
+ N_VDD_X_ix385.MP1_b PMOS L=1.4e-07 W=1.19e-06 M=1
mX_IX313.MN1 N_X_IX313.N$4_X_ix313.MN1_d N_CONTROL[1]_X_ix313.MN1_g
+ N_VSS_X_ix313.MN1_s N_VSS_X_ix642.MN1_b NMOS L=1.4e-07 W=3.5e-07 M=1
mX_IX313.MP1 N_X_IX313.N$4_X_ix313.MP1_d N_CONTROL[1]_X_ix313.MP1_g
+ N_VDD_X_ix313.MP1_s N_VDD_X_ix390.MP1_b PMOS L=1.4e-07 W=7.7e-07 M=1
mX_IX313.MN4 N_NX312_X_ix313.MN4_d N_NX431_X_ix313.MN4_g N_VSS_X_ix313.MN1_s
+ N_VSS_X_ix642.MN1_b NMOS L=1.4e-07 W=3.5e-07 M=1
mX_IX313.MN2 N_NX312_X_ix313.MN4_d N_X_IX313.N$4_X_ix313.MN2_g
+ N_VSS_X_ix313.MN2_s N_VSS_X_ix642.MN1_b NMOS L=1.4e-07 W=3.5e-07 M=1
mX_IX313.MP4 N_NX312_X_ix313.MP4_d N_X_IX313.N$4_X_ix313.MP4_g X_IX313.N$1
+ N_VDD_X_ix390.MP1_b PMOS L=1.4e-07 W=1.19e-06 M=1
mX_IX313.MP2 X_IX313.N$1 N_NX431_X_ix313.MP2_g N_VDD_X_ix313.MP1_s
+ N_VDD_X_ix390.MP1_b PMOS L=1.4e-07 W=1.19e-06 M=1
mX_IX273.MN1 N_X_IX273.N$4_X_ix273.MN1_d N_CONTROL[1]_X_ix273.MN1_g
+ N_VSS_X_ix273.MN1_s N_VSS_X_ix642.MN1_b NMOS L=1.4e-07 W=3.5e-07 M=1
mX_IX273.MP1 N_X_IX273.N$4_X_ix273.MP1_d N_CONTROL[1]_X_ix273.MP1_g
+ N_VDD_X_ix273.MP1_s N_VDD_X_ix390.MP1_b PMOS L=1.4e-07 W=7.7e-07 M=1
mX_IX273.MN4 N_NX272_X_ix273.MN4_d N_NX351_X_ix273.MN4_g N_VSS_X_ix273.MN1_s
+ N_VSS_X_ix642.MN1_b NMOS L=1.4e-07 W=3.5e-07 M=1
mX_IX273.MN2 N_NX272_X_ix273.MN4_d N_X_IX273.N$4_X_ix273.MN2_g
+ N_VSS_X_ix273.MN2_s N_VSS_X_ix642.MN1_b NMOS L=1.4e-07 W=3.5e-07 M=1
mX_IX273.MP4 N_NX272_X_ix273.MP4_d N_X_IX273.N$4_X_ix273.MP4_g X_IX273.N$1
+ N_VDD_X_ix390.MP1_b PMOS L=1.4e-07 W=1.19e-06 M=1
mX_IX273.MP2 X_IX273.N$1 N_NX351_X_ix273.MP2_g N_VDD_X_ix273.MP1_s
+ N_VDD_X_ix390.MP1_b PMOS L=1.4e-07 W=1.19e-06 M=1
mX_IX233.MN1 N_X_IX233.N$4_X_ix233.MN1_d N_CONTROL[1]_X_ix233.MN1_g
+ N_VSS_X_ix233.MN1_s N_VSS_X_ix642.MN1_b NMOS L=1.4e-07 W=3.5e-07 M=1
mX_IX233.MP1 N_X_IX233.N$4_X_ix233.MP1_d N_CONTROL[1]_X_ix233.MP1_g
+ N_VDD_X_ix233.MP1_s N_VDD_X_ix560.MP1_b PMOS L=1.4e-07 W=7.7e-07 M=1
mX_IX233.MN4 N_NX232_X_ix233.MN4_d N_NX411_X_ix233.MN4_g N_VSS_X_ix233.MN1_s
+ N_VSS_X_ix642.MN1_b NMOS L=1.4e-07 W=3.5e-07 M=1
mX_IX233.MN2 N_NX232_X_ix233.MN4_d N_X_IX233.N$4_X_ix233.MN2_g
+ N_VSS_X_ix233.MN2_s N_VSS_X_ix642.MN1_b NMOS L=1.4e-07 W=3.5e-07 M=1
mX_IX233.MP4 N_NX232_X_ix233.MP4_d N_X_IX233.N$4_X_ix233.MP4_g X_IX233.N$1
+ N_VDD_X_ix560.MP1_b PMOS L=1.4e-07 W=1.19e-06 M=1
mX_IX233.MP2 X_IX233.N$1 N_NX411_X_ix233.MP2_g N_VDD_X_ix233.MP1_s
+ N_VDD_X_ix560.MP1_b PMOS L=1.4e-07 W=1.19e-06 M=1
mX_IX193.MN1 N_X_IX193.N$4_X_ix193.MN1_d N_CONTROL[1]_X_ix193.MN1_g
+ N_VSS_X_ix193.MN1_s N_VSS_X_ix642.MN1_b NMOS L=1.4e-07 W=3.5e-07 M=1
mX_IX193.MP1 N_X_IX193.N$4_X_ix193.MP1_d N_CONTROL[1]_X_ix193.MP1_g
+ N_VDD_X_ix193.MP1_s N_VDD_X_ix390.MP1_b PMOS L=1.4e-07 W=7.7e-07 M=1
mX_IX193.MN4 N_NX192_X_ix193.MN4_d N_NX355_X_ix193.MN4_g N_VSS_X_ix193.MN1_s
+ N_VSS_X_ix642.MN1_b NMOS L=1.4e-07 W=3.5e-07 M=1
mX_IX193.MN2 N_NX192_X_ix193.MN4_d N_X_IX193.N$4_X_ix193.MN2_g
+ N_VSS_X_ix193.MN2_s N_VSS_X_ix642.MN1_b NMOS L=1.4e-07 W=3.5e-07 M=1
mX_IX193.MP4 N_NX192_X_ix193.MP4_d N_X_IX193.N$4_X_ix193.MP4_g X_IX193.N$1
+ N_VDD_X_ix390.MP1_b PMOS L=1.4e-07 W=1.19e-06 M=1
mX_IX193.MP2 X_IX193.N$1 N_NX355_X_ix193.MP2_g N_VDD_X_ix193.MP1_s
+ N_VDD_X_ix390.MP1_b PMOS L=1.4e-07 W=1.19e-06 M=1
mX_IX153.MN1 N_X_IX153.N$4_X_ix153.MN1_d N_CONTROL[1]_X_ix153.MN1_g
+ N_VSS_X_ix153.MN1_s N_VSS_X_ix642.MN1_b NMOS L=1.4e-07 W=3.5e-07 M=1
mX_IX153.MP1 N_X_IX153.N$4_X_ix153.MP1_d N_CONTROL[1]_X_ix153.MP1_g
+ N_VDD_X_ix153.MP1_s N_VDD_X_ix390.MP1_b PMOS L=1.4e-07 W=7.7e-07 M=1
mX_IX153.MN4 N_NX152_X_ix153.MN4_d N_NX391_X_ix153.MN4_g N_VSS_X_ix153.MN1_s
+ N_VSS_X_ix642.MN1_b NMOS L=1.4e-07 W=3.5e-07 M=1
mX_IX153.MN2 N_NX152_X_ix153.MN4_d N_X_IX153.N$4_X_ix153.MN2_g
+ N_VSS_X_ix153.MN2_s N_VSS_X_ix642.MN1_b NMOS L=1.4e-07 W=3.5e-07 M=1
mX_IX153.MP4 N_NX152_X_ix153.MP4_d N_X_IX153.N$4_X_ix153.MP4_g X_IX153.N$1
+ N_VDD_X_ix390.MP1_b PMOS L=1.4e-07 W=1.19e-06 M=1
mX_IX153.MP2 X_IX153.N$1 N_NX391_X_ix153.MP2_g N_VDD_X_ix153.MP1_s
+ N_VDD_X_ix390.MP1_b PMOS L=1.4e-07 W=1.19e-06 M=1
mX_IX113.MN1 N_X_IX113.N$4_X_ix113.MN1_d N_CONTROL[1]_X_ix113.MN1_g
+ N_VSS_X_ix113.MN1_s N_VSS_X_ix642.MN1_b NMOS L=1.4e-07 W=3.5e-07 M=1
mX_IX113.MP1 N_X_IX113.N$4_X_ix113.MP1_d N_CONTROL[1]_X_ix113.MP1_g
+ N_VDD_X_ix113.MP1_s N_VDD_X_ix410.MP1_b PMOS L=1.4e-07 W=7.7e-07 M=1
mX_IX113.MN4 N_NX112_X_ix113.MN4_d N_NX359_X_ix113.MN4_g N_VSS_X_ix113.MN1_s
+ N_VSS_X_ix642.MN1_b NMOS L=1.4e-07 W=3.5e-07 M=1
mX_IX113.MN2 N_NX112_X_ix113.MN4_d N_X_IX113.N$4_X_ix113.MN2_g
+ N_VSS_X_ix113.MN2_s N_VSS_X_ix642.MN1_b NMOS L=1.4e-07 W=3.5e-07 M=1
mX_IX113.MP4 N_NX112_X_ix113.MP4_d N_X_IX113.N$4_X_ix113.MP4_g X_IX113.N$1
+ N_VDD_X_ix410.MP1_b PMOS L=1.4e-07 W=1.19e-06 M=1
mX_IX113.MP2 X_IX113.N$1 N_NX359_X_ix113.MP2_g N_VDD_X_ix113.MP1_s
+ N_VDD_X_ix410.MP1_b PMOS L=1.4e-07 W=1.19e-06 M=1
mX_IX534.MN1 N_X_IX534.N$4_X_ix534.MN1_d N_CONTROL[0]_X_ix534.MN1_g
+ N_VSS_X_ix534.MN1_s N_VSS_X_ix642.MN1_b NMOS L=1.4e-07 W=3.5e-07 M=1
mX_IX534.MP1 N_X_IX534.N$4_X_ix534.MP1_d N_CONTROL[0]_X_ix534.MP1_g
+ N_VDD_X_ix534.MP1_s N_VDD_X_ix642.MP1_b PMOS L=1.4e-07 W=7.7e-07 M=1
mX_IX534.MN4 N_NX48_X_ix534.MN4_d N_CONTROL[1]_X_ix534.MN4_g N_VSS_X_ix534.MN1_s
+ N_VSS_X_ix642.MN1_b NMOS L=1.4e-07 W=3.5e-07 M=1
mX_IX534.MN2 N_NX48_X_ix534.MN4_d N_X_IX534.N$4_X_ix534.MN2_g
+ N_VSS_X_ix534.MN2_s N_VSS_X_ix642.MN1_b NMOS L=1.4e-07 W=3.5e-07 M=1
mX_IX534.MP4 N_NX48_X_ix534.MP4_d N_X_IX534.N$4_X_ix534.MP4_g X_IX534.N$1
+ N_VDD_X_ix642.MP1_b PMOS L=1.4e-07 W=1.19e-06 M=1
mX_IX534.MP2 X_IX534.N$1 N_CONTROL[1]_X_ix534.MP2_g N_VDD_X_ix534.MP1_s
+ N_VDD_X_ix642.MP1_b PMOS L=1.4e-07 W=1.19e-06 M=1
mX_IX651.MP5 N_X_IX651.N$9_X_ix651.MP4_d N_NX331_X_ix651.MP5_g
+ N_VDD_X_ix651.MP5_s N_VDD_X_ix632.MP1_b PMOS L=1.4e-07 W=1.19e-06 M=1
mX_IX651.MP4 N_X_IX651.N$9_X_ix651.MP4_d N_NX721_X_ix651.MP4_g
+ N_VDD_X_ix651.MP4_s N_VDD_X_ix632.MP1_b PMOS L=1.4e-07 W=1.19e-06 M=1
mX_IX651.MN4 N_X_IX651.N$9_X_ix651.MN4_d N_NX721_X_ix651.MN4_g X_IX651.N$8
+ N_VSS_X_ix642.MN1_b NMOS L=1.4e-07 W=7.7e-07 M=1
mX_IX651.MN3 X_IX651.N$3 N_X_IX651.N$9_X_ix651.MN3_g N_VSS_X_ix651.MN3_s
+ N_VSS_X_ix642.MN1_b NMOS L=1.4e-07 W=7.7e-07 M=1
mX_IX651.MN2 N_CB_X_ix651.MN2_d N_NX331_X_ix651.MN2_g X_IX651.N$3
+ N_VSS_X_ix642.MN1_b NMOS L=1.4e-07 W=7.7e-07 M=1
mX_IX651.MN1 N_CB_X_ix651.MN2_d N_NX721_X_ix651.MN1_g X_IX651.N$3
+ N_VSS_X_ix642.MN1_b NMOS L=1.4e-07 W=7.7e-07 M=1
mX_IX651.MP3 N_CB_X_ix651.MP3_d N_NX331_X_ix651.MP3_g X_IX651.N$1
+ N_VDD_X_ix632.MP1_b PMOS L=1.4e-07 W=2.24e-06 M=1
mX_IX651.MP2 N_CB_X_ix651.MP3_d N_X_IX651.N$9_X_ix651.MP2_g N_VDD_X_ix651.MP2_s
+ N_VDD_X_ix632.MP1_b PMOS L=1.4e-07 W=1.19e-06 M=1
mX_IX651.MP1 X_IX651.N$1 N_NX721_X_ix651.MP1_g N_VDD_X_ix651.MP5_s
+ N_VDD_X_ix632.MP1_b PMOS L=1.4e-07 W=2.24e-06 M=1
mX_IX651.MN5 X_IX651.N$8 N_NX331_X_ix651.MN5_g N_VSS_X_ix651.MN5_s
+ N_VSS_X_ix642.MN1_b NMOS L=1.4e-07 W=7.7e-07 M=1
mX_IX722.MP1 N_NX723_X_ix722.MP1_d N_NX4_X_ix722.MP1_g N_VDD_X_ix722.MP1_s
+ N_VDD_X_ix632.MP1_b PMOS L=1.4e-07 W=1.54e-06 M=1
mX_IX722.MN1 N_NX723_X_ix722.MN1_d N_NX4_X_ix722.MN1_g N_VSS_X_ix722.MN1_s
+ N_VSS_X_ix642.MN1_b NMOS L=1.4e-07 W=7.7e-07 M=1
mX_IX720.MP1 N_NX721_X_ix720.MP1_d N_NX4_X_ix720.MP1_g N_VDD_X_ix720.MP1_s
+ N_VDD_X_ix642.MP1_b PMOS L=1.4e-07 W=1.54e-06 M=1
mX_IX720.MN1 N_NX721_X_ix720.MN1_d N_NX4_X_ix720.MN1_g N_VSS_X_ix720.MN1_s
+ N_VSS_X_ix642.MN1_b NMOS L=1.4e-07 W=7.7e-07 M=1
mX_IX710.MP1 N_NX711_X_ix710.MP1_d N_CONTROL[1]_X_ix710.MP1_g
+ N_VDD_X_ix710.MP1_s N_VDD_X_ix390.MP1_b PMOS L=1.4e-07 W=1.54e-06 M=1
mX_IX710.MN1 N_NX711_X_ix710.MN1_d N_CONTROL[1]_X_ix710.MN1_g
+ N_VSS_X_ix710.MN1_s N_VSS_X_ix642.MN1_b NMOS L=1.4e-07 W=7.7e-07 M=1
mX_IX708.MP1 N_NX709_X_ix708.MP1_d N_CONTROL[1]_X_ix708.MP1_g
+ N_VDD_X_ix708.MP1_s N_VDD_X_ix642.MP1_b PMOS L=1.4e-07 W=1.54e-06 M=1
mX_IX708.MN1 N_NX709_X_ix708.MN1_d N_CONTROL[1]_X_ix708.MN1_g
+ N_VSS_X_ix708.MN1_s N_VSS_X_ix642.MN1_b NMOS L=1.4e-07 W=7.7e-07 M=1
mX_IX706.MP1 N_NX707_X_ix706.MP1_d N_CONTROL[1]_X_ix706.MP1_g
+ N_VDD_X_ix706.MP1_s N_VDD_X_ix390.MP1_b PMOS L=1.4e-07 W=1.54e-06 M=1
mX_IX706.MN1 N_NX707_X_ix706.MN1_d N_CONTROL[1]_X_ix706.MN1_g
+ N_VSS_X_ix706.MN1_s N_VSS_X_ix642.MN1_b NMOS L=1.4e-07 W=7.7e-07 M=1
mX_IX540.MP3 N_NX539_X_ix540.MP3_d N_NX18_X_ix540.MP3_g N_VDD_X_ix540.MP3_s
+ N_VDD_X_ix410.MP1_b PMOS L=1.4e-07 W=1.26e-06 M=1
mX_IX540.MN2 N_NX539_X_ix540.MN2_d N_NX52_X_ix540.MN2_g X_IX540.N$4
+ N_VSS_X_ix642.MN1_b NMOS L=1.4e-07 W=1.19e-06 M=1
mX_IX540.MN1 X_IX540.N$5 N_NX18_X_ix540.MN1_g N_VSS_X_ix540.MN1_s
+ N_VSS_X_ix642.MN1_b NMOS L=1.4e-07 W=1.19e-06 M=1
mX_IX540.MN3 X_IX540.N$4 N_CONTROL[1]_X_ix540.MN3_g X_IX540.N$5
+ N_VSS_X_ix642.MN1_b NMOS L=1.4e-07 W=1.19e-06 M=1
mX_IX540.MP2 N_NX539_X_ix540.MP2_d N_CONTROL[1]_X_ix540.MP2_g
+ N_VDD_X_ix540.MP3_s N_VDD_X_ix410.MP1_b PMOS L=1.4e-07 W=1.26e-06 M=1
mX_IX540.MP1 N_NX539_X_ix540.MP2_d N_NX52_X_ix540.MP1_g N_VDD_X_ix540.MP1_s
+ N_VDD_X_ix410.MP1_b PMOS L=1.4e-07 W=1.26e-06 M=1
mX_IX496.MP1 N_NX495_X_ix496.MP1_d N_NX572_X_ix496.MP1_g N_VDD_X_ix496.MP1_s
+ N_VDD_X_ix632.MP1_b PMOS L=1.4e-07 W=7.7e-07 M=1
mX_IX496.MN1 N_NX495_X_ix496.MN1_d N_NX572_X_ix496.MN1_g N_VSS_X_ix496.MN1_s
+ N_VSS_X_ix642.MN1_b NMOS L=1.4e-07 W=3.5e-07 M=1
mX_IX510.MP1 N_NX509_X_ix510.MP1_d N_NX612_X_ix510.MP1_g N_VDD_X_ix510.MP1_s
+ N_VDD_X_ix385.MP1_b PMOS L=1.4e-07 W=7.7e-07 M=1
mX_IX510.MN1 N_NX509_X_ix510.MN1_d N_NX612_X_ix510.MN1_g N_VSS_X_ix510.MN1_s
+ N_VSS_X_ix642.MN1_b NMOS L=1.4e-07 W=3.5e-07 M=1
mX_IX476.MP1 N_NX475_X_ix476.MP1_d N_NX492_X_ix476.MP1_g N_VDD_X_ix476.MP1_s
+ N_VDD_X_ix456.MP1_b PMOS L=1.4e-07 W=7.7e-07 M=1
mX_IX476.MN1 N_NX475_X_ix476.MN1_d N_NX492_X_ix476.MN1_g N_VSS_X_ix476.MN1_s
+ N_VSS_X_ix642.MN1_b NMOS L=1.4e-07 W=3.5e-07 M=1
mX_IX490.MP1 N_NX489_X_ix490.MP1_d N_NX532_X_ix490.MP1_g N_VDD_X_ix490.MP1_s
+ N_VDD_X_ix560.MP1_b PMOS L=1.4e-07 W=7.7e-07 M=1
mX_IX490.MN1 N_NX489_X_ix490.MN1_d N_NX532_X_ix490.MN1_g N_VSS_X_ix490.MN1_s
+ N_VSS_X_ix642.MN1_b NMOS L=1.4e-07 W=3.5e-07 M=1
mX_IX456.MP1 N_NX455_X_ix456.MP1_d N_NX412_X_ix456.MP1_g N_VDD_X_ix456.MP1_s
+ N_VDD_X_ix456.MP1_b PMOS L=1.4e-07 W=7.7e-07 M=1
mX_IX456.MN1 N_NX455_X_ix456.MN1_d N_NX412_X_ix456.MN1_g N_VSS_X_ix456.MN1_s
+ N_VSS_X_ix642.MN1_b NMOS L=1.4e-07 W=3.5e-07 M=1
mX_IX378.MP1 N_NX377_X_ix378.MP1_d N_NX18_X_ix378.MP1_g N_VDD_X_ix378.MP1_s
+ N_VDD_X_ix560.MP1_b PMOS L=1.4e-07 W=7.7e-07 M=1
mX_IX378.MN1 N_NX377_X_ix378.MN1_d N_NX18_X_ix378.MN1_g N_VSS_X_ix378.MN1_s
+ N_VSS_X_ix642.MN1_b NMOS L=1.4e-07 W=3.5e-07 M=1
mX_IX265.MP1 N_NX264_X_ix265.MP1_d N_NX431_X_ix265.MP1_g N_VDD_X_ix265.MP1_s
+ N_VDD_X_ix390.MP1_b PMOS L=1.4e-07 W=7.7e-07 M=1
mX_IX265.MN1 N_NX264_X_ix265.MN1_d N_NX431_X_ix265.MN1_g N_VSS_X_ix265.MN1_s
+ N_VSS_X_ix642.MN1_b NMOS L=1.4e-07 W=3.5e-07 M=1
mX_IX622.MN1 N_NX621_X_ix622.MN2_d N_NX360_X_ix622.MN1_g X_IX622.N$7
+ N_VSS_X_ix642.MN1_b NMOS L=1.4e-07 W=7.7e-07 M=1
mX_IX622.MP3 N_NX621_X_ix622.MP3_d N_A[8]_X_ix622.MP3_g N_VDD_X_ix622.MP3_s
+ N_VDD_X_ix642.MP1_b PMOS L=1.4e-07 W=1.05e-06 M=1
mX_IX622.MP2 N_NX621_X_ix622.MP3_d N_NX719_X_ix622.MP2_g X_IX622.N$6
+ N_VDD_X_ix642.MP1_b PMOS L=1.4e-07 W=2.03e-06 M=1
mX_IX622.MP1 X_IX622.N$6 N_NX360_X_ix622.MP1_g N_VDD_X_ix622.MP1_s
+ N_VDD_X_ix642.MP1_b PMOS L=1.4e-07 W=2.03e-06 M=1
mX_IX622.MN2 N_NX621_X_ix622.MN2_d N_NX719_X_ix622.MN2_g X_IX622.N$7
+ N_VSS_X_ix642.MN1_b NMOS L=1.4e-07 W=7.7e-07 M=1
mX_IX622.MN3 X_IX622.N$7 N_A[8]_X_ix622.MN3_g N_VSS_X_ix622.MN3_s
+ N_VSS_X_ix642.MN1_b NMOS L=1.4e-07 W=7.7e-07 M=1
mX_IX470.MP1 N_NX469_X_ix470.MP1_d N_NX452_X_ix470.MP1_g N_VDD_X_ix470.MP1_s
+ N_VDD_X_ix632.MP1_b PMOS L=1.4e-07 W=7.7e-07 M=1
mX_IX470.MN1 N_NX469_X_ix470.MN1_d N_NX452_X_ix470.MN1_g N_VSS_X_ix470.MN1_s
+ N_VSS_X_ix642.MN1_b NMOS L=1.4e-07 W=3.5e-07 M=1
mX_IX436.MP1 N_NX435_X_ix436.MP1_d N_NX332_X_ix436.MP1_g N_VDD_X_ix436.MP1_s
+ N_VDD_X_ix632.MP1_b PMOS L=1.4e-07 W=7.7e-07 M=1
mX_IX436.MN1 N_NX435_X_ix436.MN1_d N_NX332_X_ix436.MN1_g N_VSS_X_ix436.MN1_s
+ N_VSS_X_ix642.MN1_b NMOS L=1.4e-07 W=3.5e-07 M=1
mX_IX450.MP1 N_NX449_X_ix450.MP1_d N_NX372_X_ix450.MP1_g N_VDD_X_ix450.MP1_s
+ N_VDD_X_ix456.MP1_b PMOS L=1.4e-07 W=7.7e-07 M=1
mX_IX450.MN1 N_NX449_X_ix450.MN1_d N_NX372_X_ix450.MN1_g N_VSS_X_ix450.MN1_s
+ N_VSS_X_ix642.MN1_b NMOS L=1.4e-07 W=3.5e-07 M=1
mX_IX416.MP1 N_NX415_X_ix416.MP1_d N_NX252_X_ix416.MP1_g N_VDD_X_ix416.MP1_s
+ N_VDD_X_ix390.MP1_b PMOS L=1.4e-07 W=7.7e-07 M=1
mX_IX416.MN1 N_NX415_X_ix416.MN1_d N_NX252_X_ix416.MN1_g N_VSS_X_ix416.MN1_s
+ N_VSS_X_ix642.MN1_b NMOS L=1.4e-07 W=3.5e-07 M=1
mX_IX430.MP1 N_NX429_X_ix430.MP1_d N_NX292_X_ix430.MP1_g N_VDD_X_ix430.MP1_s
+ N_VDD_X_ix456.MP1_b PMOS L=1.4e-07 W=7.7e-07 M=1
mX_IX430.MN1 N_NX429_X_ix430.MN1_d N_NX292_X_ix430.MN1_g N_VSS_X_ix430.MN1_s
+ N_VSS_X_ix642.MN1_b NMOS L=1.4e-07 W=3.5e-07 M=1
mX_IX396.MP1 N_NX395_X_ix396.MP1_d N_NX172_X_ix396.MP1_g N_VDD_X_ix396.MP1_s
+ N_VDD_X_ix456.MP1_b PMOS L=1.4e-07 W=7.7e-07 M=1
mX_IX396.MN1 N_NX395_X_ix396.MN1_d N_NX172_X_ix396.MN1_g N_VSS_X_ix396.MN1_s
+ N_VSS_X_ix642.MN1_b NMOS L=1.4e-07 W=3.5e-07 M=1
mX_IX410.MP1 N_NX409_X_ix410.MP1_d N_NX212_X_ix410.MP1_g N_VDD_X_ix410.MP1_s
+ N_VDD_X_ix410.MP1_b PMOS L=1.4e-07 W=7.7e-07 M=1
mX_IX410.MN1 N_NX409_X_ix410.MN1_d N_NX212_X_ix410.MN1_g N_VSS_X_ix410.MN1_s
+ N_VSS_X_ix642.MN1_b NMOS L=1.4e-07 W=3.5e-07 M=1
mX_IX370.MP1 N_NX369_X_ix370.MP1_d N_NX92_X_ix370.MP1_g N_VDD_X_ix370.MP1_s
+ N_VDD_X_ix410.MP1_b PMOS L=1.4e-07 W=7.7e-07 M=1
mX_IX370.MN1 N_NX369_X_ix370.MN1_d N_NX92_X_ix370.MN1_g N_VSS_X_ix370.MN1_s
+ N_VSS_X_ix642.MN1_b NMOS L=1.4e-07 W=3.5e-07 M=1
mX_IX390.MP1 N_NX389_X_ix390.MP1_d N_NX132_X_ix390.MP1_g N_VDD_X_ix390.MP1_s
+ N_VDD_X_ix390.MP1_b PMOS L=1.4e-07 W=7.7e-07 M=1
mX_IX390.MN1 N_NX389_X_ix390.MN1_d N_NX132_X_ix390.MN1_g N_VSS_X_ix390.MN1_s
+ N_VSS_X_ix642.MN1_b NMOS L=1.4e-07 W=3.5e-07 M=1
mX_IX65.MP1 N_NX64_X_ix65.MP1_d N_NX359_X_ix65.MP1_g N_VDD_X_ix65.MP1_s
+ N_VDD_X_ix410.MP1_b PMOS L=1.4e-07 W=7.7e-07 M=1
mX_IX65.MN1 N_NX64_X_ix65.MN1_d N_NX359_X_ix65.MN1_g N_VSS_X_ix65.MN1_s
+ N_VSS_X_ix642.MN1_b NMOS L=1.4e-07 W=3.5e-07 M=1
mX_IX105.MP1 N_NX104_X_ix105.MP1_d N_NX391_X_ix105.MP1_g N_VDD_X_ix105.MP1_s
+ N_VDD_X_ix410.MP1_b PMOS L=1.4e-07 W=7.7e-07 M=1
mX_IX105.MN1 N_NX104_X_ix105.MN1_d N_NX391_X_ix105.MN1_g N_VSS_X_ix105.MN1_s
+ N_VSS_X_ix642.MN1_b NMOS L=1.4e-07 W=3.5e-07 M=1
mX_IX145.MP1 N_NX144_X_ix145.MP1_d N_NX355_X_ix145.MP1_g N_VDD_X_ix145.MP1_s
+ N_VDD_X_ix560.MP1_b PMOS L=1.4e-07 W=7.7e-07 M=1
mX_IX145.MN1 N_NX144_X_ix145.MN1_d N_NX355_X_ix145.MN1_g N_VSS_X_ix145.MN1_s
+ N_VSS_X_ix642.MN1_b NMOS L=1.4e-07 W=3.5e-07 M=1
mX_IX185.MP1 N_NX184_X_ix185.MP1_d N_NX411_X_ix185.MP1_g N_VDD_X_ix185.MP1_s
+ N_VDD_X_ix560.MP1_b PMOS L=1.4e-07 W=7.7e-07 M=1
mX_IX185.MN1 N_NX184_X_ix185.MN1_d N_NX411_X_ix185.MN1_g N_VSS_X_ix185.MN1_s
+ N_VSS_X_ix642.MN1_b NMOS L=1.4e-07 W=3.5e-07 M=1
mX_IX225.MP1 N_NX224_X_ix225.MP1_d N_NX351_X_ix225.MP1_g N_VDD_X_ix225.MP1_s
+ N_VDD_X_ix410.MP1_b PMOS L=1.4e-07 W=7.7e-07 M=1
mX_IX225.MN1 N_NX224_X_ix225.MN1_d N_NX351_X_ix225.MN1_g N_VSS_X_ix225.MN1_s
+ N_VSS_X_ix642.MN1_b NMOS L=1.4e-07 W=3.5e-07 M=1
mX_IX139.MP1 N_NX138_X_ix139.MP2_d N_NX389_X_ix139.MP1_g N_VDD_X_ix139.MP1_s
+ N_VDD_X_ix390.MP1_b PMOS L=1.4e-07 W=1.05e-06 M=1
mX_IX139.MN1 N_NX138_X_ix139.MN1_d N_NX389_X_ix139.MN1_g X_IX139.N$5
+ N_VSS_X_ix642.MN1_b NMOS L=1.4e-07 W=7.7e-07 M=1
mX_IX139.MN2 X_IX139.N$5 N_NX391_X_ix139.MN2_g N_VSS_X_ix139.MN2_s
+ N_VSS_X_ix642.MN1_b NMOS L=1.4e-07 W=7.7e-07 M=1
mX_IX139.MP2 N_NX138_X_ix139.MP2_d N_NX391_X_ix139.MP2_g N_VDD_X_ix139.MP2_s
+ N_VDD_X_ix390.MP1_b PMOS L=1.4e-07 W=1.05e-06 M=1
mX_IX305.MP1 N_NX304_X_ix305.MP1_d N_NX347_X_ix305.MP1_g N_VDD_X_ix305.MP1_s
+ N_VDD_X_ix385.MP1_b PMOS L=1.4e-07 W=7.7e-07 M=1
mX_IX305.MN1 N_NX304_X_ix305.MN1_d N_NX347_X_ix305.MN1_g N_VSS_X_ix305.MN1_s
+ N_VSS_X_ix642.MN1_b NMOS L=1.4e-07 W=3.5e-07 M=1
mX_IX345.MP1 N_NX344_X_ix345.MP1_d N_NX451_X_ix345.MP1_g N_VDD_X_ix345.MP1_s
+ N_VDD_X_ix385.MP1_b PMOS L=1.4e-07 W=7.7e-07 M=1
mX_IX345.MN1 N_NX344_X_ix345.MN1_d N_NX451_X_ix345.MN1_g N_VSS_X_ix345.MN1_s
+ N_VSS_X_ix642.MN1_b NMOS L=1.4e-07 W=3.5e-07 M=1
mX_IX385.MP1 N_NX384_X_ix385.MP1_d N_NX343_X_ix385.MP1_g N_VDD_X_ix385.MP1_s
+ N_VDD_X_ix385.MP1_b PMOS L=1.4e-07 W=7.7e-07 M=1
mX_IX385.MN1 N_NX384_X_ix385.MN1_d N_NX343_X_ix385.MN1_g N_VSS_X_ix385.MN1_s
+ N_VSS_X_ix642.MN1_b NMOS L=1.4e-07 W=3.5e-07 M=1
mX_IX425.MP1 N_NX424_X_ix425.MP1_d N_NX471_X_ix425.MP1_g N_VDD_X_ix425.MP1_s
+ N_VDD_X_ix642.MP1_b PMOS L=1.4e-07 W=7.7e-07 M=1
mX_IX425.MN1 N_NX424_X_ix425.MN1_d N_NX471_X_ix425.MN1_g N_VSS_X_ix425.MN1_s
+ N_VSS_X_ix642.MN1_b NMOS L=1.4e-07 W=3.5e-07 M=1
mX_IX465.MP1 N_NX464_X_ix465.MP1_d N_NX339_X_ix465.MP1_g N_VDD_X_ix465.MP1_s
+ N_VDD_X_ix632.MP1_b PMOS L=1.4e-07 W=7.7e-07 M=1
mX_IX465.MN1 N_NX464_X_ix465.MN1_d N_NX339_X_ix465.MN1_g N_VSS_X_ix465.MN1_s
+ N_VSS_X_ix642.MN1_b NMOS L=1.4e-07 W=3.5e-07 M=1
mX_IX505.MP1 N_NX504_X_ix505.MP1_d N_NX491_X_ix505.MP1_g N_VDD_X_ix505.MP1_s
+ N_VDD_X_ix385.MP1_b PMOS L=1.4e-07 W=7.7e-07 M=1